A71EV2A-x1209_A_151_1_A71EV2A-x0526+A+147+1
     RDKit          3D

  6  6  0  0  0  0  0  0  0  0999 V2000
    9.4720    9.2400   23.2710 Br  0  0  0  0  0  0  0  0  0  0  0  0
    8.2750    9.9090   24.5330 C   0  0  0  0  0  0  0  0  0  0  0  0
    7.1830    9.1870   24.9810 N   0  0  0  0  0  0  0  0  0  0  0  0
    6.5210    9.9720   25.8830 C   0  0  0  0  0  0  0  0  0  0  0  0
    7.2170   11.1140   25.9630 C   0  0  0  0  0  0  0  0  0  0  0  0
    8.2940   11.0690   25.1190 N   0  0  0  0  0  0  0  0  0  0  0  0
  2  1  1  0
  2  6  2  0
  6  5  1  0
  5  4  2  0
  4  3  1  0
  3  2  1  0
M  END
