SARS2_Mac1A-A0006
  PyMOL3.0          3D                             0

 19 22  0  0  0  0  0  0  0  0999 V2000
    0.1390   15.0650   -0.2520 N   0  0  0  0  0  0  0  0  0  0  0  0
    0.0900   15.0580    1.0860 C   0  0  0  0  0  0  0  0  0  0  0  0
   -1.0540   15.2020   -0.8670 C   0  0  0  0  0  0  0  0  0  0  0  0
   -1.0230   15.2270   -2.2550 N   0  0  0  0  0  0  0  0  0  0  0  0
    0.2380   15.1110   -3.0160 C   0  0  0  0  0  0  0  0  0  0  0  0
   -1.9000   13.4030   -4.7730 N   0  0  0  0  0  0  0  0  0  0  0  0
   -0.1960   15.2170   -4.4690 C   0  0  0  0  0  0  0  0  0  0  0  0
   -2.3330   11.5440   -5.8280 N   0  0  0  0  0  0  0  0  0  0  0  0
   -1.6760   14.8110   -4.4630 C   0  0  0  0  0  0  0  0  0  0  0  0
   -1.5700   12.4210   -3.8950 N   0  0  0  0  0  0  0  0  0  0  0  0
   -2.3600   12.8530   -5.8990 C   0  0  0  0  0  0  0  0  0  0  0  0
   -3.3700   15.4820    1.8070 N   0  0  0  0  0  0  0  0  0  0  0  0
   -1.8420   11.3350   -4.5840 C   0  0  0  0  0  0  0  0  0  0  0  0
   -0.9740   15.1500    1.8880 N   0  0  0  0  0  0  0  0  0  0  0  0
   -2.1860   15.3110   -3.1220 C   0  0  0  0  0  0  0  0  0  0  0  0
   -2.2910   15.3360   -0.1590 C   0  0  0  0  0  0  0  0  0  0  0  0
   -3.6900   15.5120   -0.4140 C   0  0  0  0  0  0  0  0  0  0  0  0
   -4.2970   15.6010    0.7970 C   0  0  0  0  0  0  0  0  0  0  0  0
   -2.1370   15.3060    1.2340 C   0  0  0  0  0  0  0  0  0  0  0  0
  1  2  4  0  0  0  0
  1  3  4  0  0  0  0
  3  4  1  0  0  0  0
  4  5  1  0  0  0  0
  4 15  1  0  0  0  0
  6 10  4  0  0  0  0
  6 11  4  0  0  0  0
  5  7  1  0  0  0  0
  8 11  4  0  0  0  0
  6  9  1  0  0  0  0
  7  9  1  0  0  0  0
 10 13  4  0  0  0  0
 12 19  4  0  0  0  0
  8 13  4  0  0  0  0
  2 14  4  0  0  0  0
  9 15  1  0  0  0  0
  3 16  4  0  0  0  0
 16 17  4  0  0  0  0
 12 18  4  0  0  0  0
 17 18  4  0  0  0  0
 14 19  4  0  0  0  0
 16 19  4  0  0  0  0
M  END
>  <pdb_header>
HEADER    ----                                    18-MAY-20                     
TITLE     ---                                                                   
EXPDTA    X-RAY DIFFRACTION                                                     
REMARK --------------------- added by autoBUSTER ---------------------------------START
REMARK run at   = Mon Mar 27 16:25:11 BST 2023
REMARK     in   = /dls/labxchem/data/lb32627/lb32627-1/processing/analysis/model_building/SARS2_Mac1A-A0006
REMARK     user = ill13029
REMARK     cmd  = \
REMARK            /dls_sw/apps/GPhL/BUSTER/20221121/autoBUSTER/bin/linux64/refine \
REMARK            -p \
REMARK            /dls/labxchem/data/lb32627/lb32627-1/processing/analysis/model_building/SARS2_Mac1A-A0006/cootOut/Refi
REMARK            -m \
REMARK            /dls/labxchem/data/lb32627/lb32627-1/processing/analysis/model_building/SARS2_Mac1A-A0006/SARS2_Mac1A-
REMARK            -l \
REMARK            /dls/labxchem/data/lb32627/lb32627-1/processing/analysis/model_building/SARS2_Mac1A-A0006/ASAP-0000006
REMARK            -autoncs -M ADP -d Refine_11
REMARK Files used:
REMARK   PDB              = Refine_11/pdbchk.pdb
REMARK   MTZ              = /dls/labxchem/data/lb32627/lb32627-1/processing/analysis/model_building/SARS2_Mac1A-A0006/SA
REMARK output written to subdirectory = Refine_11
REMARK best refinement for F,SIGF with R/Rfree 0.2111/0.2521
REMARK header records are copied from input PDB file (apart from REMARK 3!)
REMARK --------------------- added by autoBUSTER -----------------------------------END
REMARK --------------------- added by autoBUSTER -------------------------------
REMARK run at   = Fri Dec  2 13:50:03 GMT 2022                                  
REMARK     in   = /dls/labxchem/data/lb32627/lb32627-1/processing/analysis/model
REMARK     user = ill13029                                                      
REMARK     cmd  = \                                                             
REMARK            /dls_sw/apps/GPhL/BUSTER/20220608/autoBUSTER/bin/linux64/refin
REMARK            -p \                                                          
REMARK            /dls/labxchem/data/lb32627/lb32627-1/processing/analysis/model
REMARK            -m \                                                          
REMARK            /dls/labxchem/data/lb32627/lb32627-1/processing/analysis/model
REMARK            -l \                                                          
REMARK            /dls/labxchem/data/lb32627/lb32627-1/processing/analysis/model
REMARK            -autoncs -M ADP -d Refine_9                                   
REMARK Files used:                                                              
REMARK   PDB              = Refine_9/pdbchk.pdb                                 
REMARK   MTZ              = /dls/labxchem/data/lb32627/lb32627-1/processing/anal
REMARK output written to subdirectory = Refine_9                                
REMARK best refinement for F,SIGF with R/Rfree 0.2112/0.2521                    
REMARK header records are copied from input PDB file (apart from REMARK 3!)     
REMARK --------------------- added by autoBUSTER -------------------------------
REMARK --------------------- added by autoBUSTER -------------------------------
REMARK run at   = Fri Dec  2 11:55:33 GMT 2022                                  
REMARK     in   = /dls/labxchem/data/lb32627/lb32627-1/processing/analysis/model
REMARK     user = ill13029                                                      
REMARK     cmd  = \                                                             
REMARK            /dls_sw/apps/GPhL/BUSTER/20220608/autoBUSTER/bin/linux64/refin
REMARK            -p \                                                          
REMARK            /dls/labxchem/data/lb32627/lb32627-1/processing/analysis/model
REMARK            -m \                                                          
REMARK            /dls/labxchem/data/lb32627/lb32627-1/processing/analysis/model
REMARK            -l \                                                          
REMARK            /dls/labxchem/data/lb32627/lb32627-1/processing/analysis/model
REMARK            -autoncs -M ADP -B user -Gelly gelly.dat -d Refine_8          
REMARK Files used:                                                              
REMARK   PDB              = Refine_8/pdbchk.pdb                                 
REMARK   MTZ              = /dls/labxchem/data/lb32627/lb32627-1/processing/anal
REMARK   Gelly commands       = /dls/labxchem/data/lb32627/lb32627-1/processing/
REMARK output written to subdirectory = Refine_8                                
REMARK best refinement for F,SIGF with R/Rfree 0.2114/0.2524                    
REMARK header records are copied from input PDB file (apart from REMARK 3!)     
REMARK --------------------- added by autoBUSTER -------------------------------
REMARK --------------------- added by autoBUSTER -------------------------------
REMARK run at   = Thu Dec  1 21:49:13 GMT 2022                                  
REMARK     in   = /dls/labxchem/data/lb32627/lb32627-1/processing/analysis/model
REMARK     user = ill13029                                                      
REMARK     cmd  = \                                                             
REMARK            /dls_sw/apps/GPhL/BUSTER/20220608/autoBUSTER/bin/linux64/refin
REMARK            -p \                                                          
REMARK            /dls/labxchem/data/lb32627/lb32627-1/processing/analysis/model
REMARK            -m \                                                          
REMARK            /dls/labxchem/data/lb32627/lb32627-1/processing/analysis/model
REMARK            -l \                                                          
REMARK            /dls/labxchem/data/lb32627/lb32627-1/processing/analysis/model
REMARK            -autoncs -M ADP -d Refine_7                                   
REMARK Files used:                                                              
REMARK   PDB              = Refine_7/pdbchk.pdb                                 
REMARK   MTZ              = /dls/labxchem/data/lb32627/lb32627-1/processing/anal
REMARK output written to subdirectory = Refine_7                                
REMARK best refinement for F,SIGF with R/Rfree 0.2119/0.2534                    
REMARK header records are copied from input PDB file (apart from REMARK 3!)     
REMARK --------------------- added by autoBUSTER -------------------------------
REMARK --------------------- added by autoBUSTER -------------------------------
REMARK run at   = Thu Dec  1 20:29:59 GMT 2022                                  
REMARK     in   = /dls/labxchem/data/lb32627/lb32627-1/processing/analysis/model
REMARK     user = ill13029                                                      
REMARK     cmd  = \                                                             
REMARK            /dls_sw/apps/GPhL/BUSTER/20220608/autoBUSTER/bin/linux64/refin
REMARK            -p \                                                          
REMARK            /dls/labxchem/data/lb32627/lb32627-1/processing/analysis/model
REMARK            -m \                                                          
REMARK            /dls/labxchem/data/lb32627/lb32627-1/processing/analysis/model
REMARK            -l \                                                          
REMARK            /dls/labxchem/data/lb32627/lb32627-1/processing/analysis/model
REMARK            -autoncs -M ADP -d Refine_6                                   
REMARK Files used:                                                              
REMARK   PDB              = Refine_6/pdbchk.pdb                                 
REMARK   MTZ              = /dls/labxchem/data/lb32627/lb32627-1/processing/anal
REMARK output written to subdirectory = Refine_6                                
REMARK best refinement for F,SIGF with R/Rfree 0.2115/0.2522                    
REMARK header records are copied from input PDB file (apart from REMARK 3!)     
REMARK --------------------- added by autoBUSTER -------------------------------
REMARK --------------------- added by autoBUSTER -------------------------------
REMARK run at   = Tue Nov 29 10:15:53 GMT 2022                                  
REMARK     in   = /dls/labxchem/data/lb32627/lb32627-1/processing/analysis/model
REMARK     user = ill13029                                                      
REMARK     cmd  = \                                                             
REMARK            /dls_sw/apps/GPhL/BUSTER/20220608/autoBUSTER/bin/linux64/refin
REMARK            -p \                                                          
REMARK            /dls/labxchem/data/lb32627/lb32627-1/processing/analysis/model
REMARK            -m \                                                          
REMARK            /dls/labxchem/data/lb32627/lb32627-1/processing/analysis/model
REMARK            -l \                                                          
REMARK            /dls/labxchem/data/lb32627/lb32627-1/processing/analysis/model
REMARK            -autoncs -M TLSbasic -d Refine_5                              
REMARK Files used:                                                              
REMARK   PDB              = Refine_5/pdbchk.pdb                                 
REMARK   MTZ              = /dls/labxchem/data/lb32627/lb32627-1/processing/anal
REMARK output written to subdirectory = Refine_5                                
REMARK best refinement for F,SIGF with R/Rfree 0.2335/0.2597                    
REMARK header records are copied from input PDB file (apart from REMARK 3!)     
REMARK --------------------- added by autoBUSTER -------------------------------
REMARK   2                                                            
REMARK   2 RESOLUTION.    1.20 ANGSTROMS.
REMARK   3
REMARK   3 REFINEMENT.
REMARK   3   PROGRAM     : BUSTER 2.10.4 (21-NOV-2022)
REMARK   3   AUTHORS     : BRICOGNE,BLANC,BRANDL,FLENSBURG,KELLER,
REMARK   3               : PACIOREK,ROVERSI,SHARFF,SMART,VONRHEIN,WOMACK;
REMARK   3               : MATTHEWS,TEN EYCK,TRONRUD
REMARK   3
REMARK   3  DATA USED IN REFINEMENT.
REMARK   3   RESOLUTION RANGE HIGH (ANGSTROMS) : 1.200
REMARK   3   RESOLUTION RANGE LOW  (ANGSTROMS) : 39.67
REMARK   3   DATA CUTOFF            (SIGMA(F)) : 0.000
REMARK   3   COMPLETENESS FOR RANGE        (%) : 84.6
REMARK   3   NUMBER OF REFLECTIONS             : 81419
REMARK   3
REMARK   3  FIT TO DATA USED IN REFINEMENT.
REMARK   3   CROSS-VALIDATION METHOD          : THROUGHOUT
REMARK   3   FREE R VALUE TEST SET SELECTION  : RANDOM
REMARK   3   R VALUE     (WORKING + TEST SET) : 0.2131
REMARK   3   R VALUE            (WORKING SET) : 0.2111
REMARK   3   FREE R VALUE                     : 0.2521
REMARK   3   FREE R VALUE TEST SET SIZE   (%) : 5.070
REMARK   3   FREE R VALUE TEST SET COUNT      : 4125
REMARK   3   ESTIMATED ERROR OF FREE R VALUE  : NULL
REMARK   3
REMARK   3  FIT IN THE HIGHEST RESOLUTION BIN.
REMARK   3   TOTAL NUMBER OF BINS USED           : 51
REMARK   3   BIN RESOLUTION RANGE HIGH       (A) : 1.20
REMARK   3   BIN RESOLUTION RANGE LOW        (A) : 1.27
REMARK   3   BIN COMPLETENESS (WORKING+TEST) (%) : 10.94
REMARK   3   REFLECTIONS IN BIN   (WORKING+TEST) : 1629
REMARK   3   BIN R VALUE          (WORKING+TEST) : 0.5505
REMARK   3   REFLECTIONS IN BIN    (WORKING SET) : 1540
REMARK   3   BIN R VALUE           (WORKING SET) : 0.5479
REMARK   3   BIN FREE R VALUE                    : 0.5950
REMARK   3   BIN FREE R VALUE TEST SET SIZE  (%) : 5.46
REMARK   3   BIN FREE R VALUE TEST SET COUNT     : 89
REMARK   3   ESTIMATED ERROR OF BIN FREE R VALUE : NULL
REMARK   3
REMARK   3  NUMBER OF NON-HYDROGEN ATOMS USED IN REFINEMENT.
REMARK   3   PROTEIN ATOMS            : 2526
REMARK   3   NUCLEIC ACID ATOMS       : 0
REMARK   3   HETEROGEN ATOMS          : 19
REMARK   3   SOLVENT ATOMS            : 444
REMARK   3
REMARK   3  B VALUES.
REMARK   3   FROM WILSON PLOT           (A**2) : 16.19
REMARK   3   MEAN B VALUE      (OVERALL, A**2) : 26.10
REMARK   3   OVERALL ANISOTROPIC B VALUE.
REMARK   3    B11 (A**2) : 5.21470
REMARK   3    B22 (A**2) : 5.21470
REMARK   3    B33 (A**2) : -10.42940
REMARK   3    B12 (A**2) : 0.00000
REMARK   3    B13 (A**2) : 0.00000
REMARK   3    B23 (A**2) : 0.00000
REMARK   3
REMARK   3  ESTIMATED COORDINATE ERROR.
REMARK   3   ESD FROM LUZZATI PLOT                    (A) : 0.44
REMARK   3   DPI (BLOW EQ-10) BASED ON R VALUE        (A) : 0.060
REMARK   3   DPI (BLOW EQ-9) BASED ON FREE R VALUE    (A) : 0.065
REMARK   3   DPI (CRUICKSHANK) BASED ON R VALUE       (A) : 0.056
REMARK   3   DPI (CRUICKSHANK) BASED ON FREE R VALUE  (A) : 0.061
REMARK   3
REMARK   3   REFERENCES: BLOW, D. (2002) ACTA CRYST D58, 792-797
REMARK   3               CRUICKSHANK, D.W.J. (1999) ACTA CRYST D55, 583-601
REMARK   3
REMARK   3  CORRELATION COEFFICIENTS.
REMARK   3   CORRELATION COEFFICIENT FO-FC      : 0.947
REMARK   3   CORRELATION COEFFICIENT FO-FC FREE : 0.936
REMARK   3
REMARK   3  X-RAY WEIGHT : 6.21
REMARK   3
REMARK   3  GEOMETRY FUNCTION.                                                  
REMARK   3   RESTRAINT LIBRARIES.                                               
REMARK   3    NUMBER OF LIBRARIES USED :   8                                    
REMARK   3    LIBRARY  1 : protgeo_eh99.dat (V1.6.4.20) 20220523  STANDARD      
REMARK   3                 AMINO ACID DICTIONARY. BONDS AND ANGLES FROM         
REMARK   3                 ENGH AND HUBER EH99. OTHER VALUES BASED ON           
REMARK   3                 PREVIOUS TNT OR TAKEN FROM CCP4. INCLUDES            
REMARK   3                 HYDROGEN ATOMS.                                      
REMARK   3    LIBRARY  2 : exoticaa.dat (V1.3.4.16) 20220523  COLLECTION        
REMARK   3                 OF NON-STANDARD AMINO ACIDS, MAINLY EH91             
REMARK   3                 WITHOUT IDEAL DISTANCE INFO                          
REMARK   3    LIBRARY  3 : nuclgeo.dat (V1.13.4.9) 20221011                     
REMARK   3    LIBRARY  4 : bcorrel.dat (V1.15.10.2) 20190616                    
REMARK   3    LIBRARY  5 : contact.dat (V1.15.12.10) 20191121                   
REMARK   3    LIBRARY  6 : idealdist_contact.dat (V1.3.4.13) 20220125           
REMARK   3                 IDEAL-DISTANCE CONTACT TERM DATA AS USED IN          
REMARK   3                 PROLSQ. VALUES USED HERE ARE BASED ON DATA           
REMARK   3                 HARVESTING OF PDB AS OF 20190109.                    
REMARK   3    LIBRARY  7 : restraints for LIG (unknown) from cif                
REMARK   3                 dictionary ASAP-0000006-001.cif; generated by        
REMARK   3                 GRADE 1.2.21 (Feb 03 2022) from SMILES               
REMARK   3                 c1nc(N2CCC(n3cncn3)C2)c2cc[nH]c2n1 using MOGUL       
REMARK   3                 1.8.5(274361), CSD as541be, with quantum             
REMARK   3                 mechanics RM1                                        
REMARK   3    LIBRARY  8 : assume.dat (V1.9.4.3) 20221011                       
REMARK   3                                                                      
REMARK   3   NUMBER OF GEOMETRIC FUNCTION TERMS DEFINED : 15                    
REMARK   3   TERM                          COUNT    WEIGHT   FUNCTION.          
REMARK   3    BOND LENGTHS              :   2626 ;   2.00 ;  HARMONIC           
REMARK   3    BOND ANGLES               :   3577 ;   2.00 ;  HARMONIC           
REMARK   3    TORSION ANGLES            :    895 ;   2.00 ;  SINUSOIDAL         
REMARK   3    TRIGONAL CARBON PLANES    :   NULL ;   NULL ;  NULL               
REMARK   3    GENERAL PLANES            :    470 ;   5.00 ;  HARMONIC           
REMARK   3    ISOTROPIC THERMAL FACTORS :   2604 ;  10.00 ;  HARMONIC           
REMARK   3    BAD NON-BONDED CONTACTS   :   NULL ;   NULL ;  NULL               
REMARK   3    IMPROPER TORSIONS         :   NULL ;   NULL ;  NULL               
REMARK   3    PSEUDOROTATION ANGLES     :   NULL ;   NULL ;  NULL               
REMARK   3    CHIRAL IMPROPER TORSION   :    337 ;   5.00 ;  SEMIHARMONIC       
REMARK   3    SUM OF OCCUPANCIES        :   NULL ;   NULL ;  NULL               
REMARK   3    UTILITY DISTANCES         :   NULL ;   NULL ;  NULL               
REMARK   3    UTILITY ANGLES            :   NULL ;   NULL ;  NULL               
REMARK   3    UTILITY TORSION           :   NULL ;   NULL ;  NULL               
REMARK   3    IDEAL-DIST CONTACT TERM   :   2887 ;   4.00 ;  SEMIHARMONIC       
REMARK   3                                                                      
REMARK   3   RMS DEVIATIONS FROM IDEAL VALUES.                                  
REMARK   3   BOND LENGTHS                       (A) : 0.013                     
REMARK   3   BOND ANGLES                  (DEGREES) : 1.18                      
REMARK   3   PEPTIDE OMEGA TORSION ANGLES (DEGREES) : 4.26                      
REMARK   3   OTHER TORSION ANGLES         (DEGREES) : 15.77                     
REMARK   3                                                                      
REMARK   3   SIMILARITY.                                                        
REMARK   3    NCS.                                                              
REMARK   3     NCS METHOD: RESTRAINT LSSR (-AUTONCS)                            
REMARK   3    TARGET RESTRAINTS.                                                
REMARK   3     TARGET REPRESENTATION : NONE                                     
REMARK   3     TARGET STRUCTURE : NULL                                          
REMARK   3                                                                      
REMARK   3  TLS DETAILS.                                                        
REMARK   3   NUMBER OF TLS GROUPS  :            0                               
REMARK   3                                                                      
REMARK   3  REFINEMENT NOTES.                                                   
REMARK   3   NUMBER OF REFINEMENT NOTES :   1                                   
REMARK   3   NOTE   1 : IDEAL-DIST CONTACT TERM CONTACT SETUP. ALL ATOMS        
REMARK   3               HAVE CCP4 ATOM TYPE FROM LIBRARY                       
REMARK   3
REMARK   3  OTHER REFINEMENT REMARKS: NULL
REMARK   3
REMARK 290                                                            
REMARK 290 CRYSTALLOGRAPHIC SYMMETRY                                  
REMARK 290 SYMMETRY OPERATORS FOR SPACE GROUP: P 43                   
REMARK 290                                                            
REMARK 290      SYMOP   SYMMETRY                                      
REMARK 290     NNNMMM   OPERATOR                                      
REMARK 290       1555   X,Y,Z                                         
REMARK 290       2555   -X,-Y,1/2+Z                                   
REMARK 290       3555   -Y,X,3/4+Z                                    
REMARK 290       4555   Y,-X,1/4+Z                                    
REMARK 290                                                            
REMARK 290     WHERE NNN -> OPERATOR NUMBER                           
REMARK 290           MMM -> TRANSLATION VECTOR                        
REMARK 290                                                            
REMARK 290 CRYSTALLOGRAPHIC SYMMETRY TRANSFORMATIONS                  
REMARK 290 THE FOLLOWING TRANSFORMATIONS OPERATE ON THE ATOM/HETATM   
REMARK 290 RECORDS IN THIS ENTRY TO PRODUCE CRYSTALLOGRAPHICALLY      
REMARK 290 RELATED MOLECULES.                                         
REMARK 290   SMTRY1   1  1.000000  0.000000  0.000000        0.00000
REMARK 290   SMTRY2   1  0.000000  1.000000  0.000000        0.00000
REMARK 290   SMTRY3   1  0.000000  0.000000  1.000000        0.00000
REMARK 290   SMTRY1   2 -1.000000  0.000000  0.000000        0.00000
REMARK 290   SMTRY2   2  0.000000 -1.000000  0.000000        0.00000
REMARK 290   SMTRY3   2  0.000000  0.000000  1.000000       19.74550
REMARK 290   SMTRY1   3  0.000000 -1.000000  0.000000        0.00000
REMARK 290   SMTRY2   3  1.000000  0.000000  0.000000        0.00000
REMARK 290   SMTRY3   3  0.000000  0.000000  1.000000       29.61825
REMARK 290   SMTRY1   4  0.000000  1.000000  0.000000        0.00000
REMARK 290   SMTRY2   4 -1.000000  0.000000  0.000000        0.00000
REMARK 290   SMTRY3   4  0.000000  0.000000  1.000000        9.87275
REMARK 290                                                            
REMARK 290 REMARK: NULL                                               
REMARK 300
REMARK 300 BIOMOLECULE: 1, 2
REMARK 300 SEE REMARK 350 FOR THE AUTHOR PROVIDED AND/OR PROGRAM
REMARK 300 GENERATED ASSEMBLY INFORMATION FOR THE STRUCTURE IN
REMARK 300 THIS ENTRY. THE REMARK MAY ALSO  PROVIDE INFORMATION ON
REMARK 300 BURIED SURFACE AREA.
REMARK 350
REMARK 350 COORDINATES FOR A COMPLETE MULTIMER REPRESENTING THE KNOWN
REMARK 350 BIOLOGICALLY SIGNIFICANT OLIGOMERIZATION STATE OF THE
REMARK 350 MOLECULE CAN BE GENERATED BY APPLYING BIOMT TRANSFORMATIONS
REMARK 350 GIVEN BELOW. BOTH NON-CRYSTALLOGRAPHIC AND
REMARK 350 CRYSTALLOGRAPHIC OPERATIONS ARE GIVEN.
REMARK 350
REMARK 350 BIOMOLECULE: 1
REMARK 350 SOFTWARE DETERMINED QUATERNARY STRUCTURE: MONOMERIC
REMARK 350 SOFTWARE USED: PISA
REMARK 350 SURFACE AREA OF THE MONOMER: 7931 ANGSTROM**2
REMARK 350 FREE ENERGY OF FOLDING: -155.0 KCAL/MOL
REMARK 350 APPLY THE FOLLOWING TO CHAINS: A,W
REMARK 350   BIOMT1   1  1.000000  0.000000  0.000000        0.00000
REMARK 350   BIOMT2   1  0.000000  1.000000  0.000000        0.00000
REMARK 350   BIOMT3   1  0.000000  0.000000  1.000000        0.00000
REMARK 350
REMARK 350 BIOMOLECULE: 2
REMARK 350 SOFTWARE DETERMINED QUATERNARY STRUCTURE: MONOMERIC
REMARK 350 SOFTWARE USED: PISA
REMARK 350 SURFACE AREA OF THE MONOMER: 8067 ANGSTROM**2
REMARK 350 FREE ENERGY OF FOLDING: -158.2 KCAL/MOL
REMARK 350 APPLY THE FOLLOWING TO CHAINS: B,W
REMARK 350   BIOMT1   1  1.000000  0.000000  0.000000        0.00000
REMARK 350   BIOMT2   1  0.000000  1.000000  0.000000        0.00000
REMARK 350   BIOMT3   1  0.000000  0.000000  1.000000        0.00000
CRYST1   88.703   88.703   39.491  90.00  90.00  90.00 P 43                     


$$$$
SARS2_Mac1A-A0035
  PyMOL3.0          3D                             0

 24 27  0  0  0  0  0  0  0  0999 V2000
   -8.3590   14.9530    7.6540 N   0  0  0  0  0  0  0  0  0  0  0  0
   -8.9080   13.6910    7.1550 C   0  0  0  0  0  0  0  0  0  0  0  0
   -9.6320   16.7370    9.3650 O   0  0  0  0  0  0  0  0  0  0  0  0
   -8.0490   14.8930    9.0880 C   0  0  0  0  0  0  0  0  0  0  0  0
   -7.9090   15.8130    4.9650 N   0  0  0  0  0  0  0  0  0  0  0  0
   -8.7410   16.2530    2.8730 O   0  0  0  0  0  0  0  0  0  0  0  0
   -8.3640   16.1980    9.7890 C   0  0  0  0  0  0  0  0  0  0  0  0
   -6.6710   15.2650    3.1340 N   0  0  0  0  0  0  0  0  0  0  0  0
   -9.6480   16.9780    8.0150 C   0  0  0  0  0  0  0  0  0  0  0  0
   -6.7290   15.0170   -0.5810 N   0  0  0  0  0  0  0  0  0  0  0  0
  -10.2350   18.1530    7.5700 C   0  0  0  0  0  0  0  0  0  0  0  0
   -4.7850   15.0760   -1.9740 N   0  0  0  0  0  0  0  0  0  0  0  0
  -10.1330   18.4900    6.2300 C   0  0  0  0  0  0  0  0  0  0  0  0
   -3.4290   15.1920   -1.8190 N   0  0  0  0  0  0  0  0  0  0  0  0
   -9.4380   17.6780    5.3460 C   0  0  0  0  0  0  0  0  0  0  0  0
   -8.8380   16.4920    5.7850 C   0  0  0  0  0  0  0  0  0  0  0  0
   -7.8270   15.8490    3.5980 C   0  0  0  0  0  0  0  0  0  0  0  0
   -6.2020   15.2070    1.8020 C   0  0  0  0  0  0  0  0  0  0  0  0
   -7.0800   15.0330    0.7160 C   0  0  0  0  0  0  0  0  0  0  0  0
   -5.4170   15.1340   -0.7850 C   0  0  0  0  0  0  0  0  0  0  0  0
   -3.2150   15.3250   -0.5250 C   0  0  0  0  0  0  0  0  0  0  0  0
   -4.4330   15.3000    0.2010 C   0  0  0  0  0  0  0  0  0  0  0  0
   -4.8370   15.3650    1.5280 C   0  0  0  0  0  0  0  0  0  0  0  0
   -8.9690   16.1370    7.1320 C   0  0  0  0  0  0  0  0  0  0  0  0
  1  2  1  0  0  0  0
  3  7  1  0  0  0  0
  1  4  1  0  0  0  0
  5 16  1  0  0  0  0
  6 17  2  0  0  0  0
  4  7  1  0  0  0  0
  8 18  1  0  0  0  0
  3  9  1  0  0  0  0
 10 19  4  0  0  0  0
  9 11  4  0  0  0  0
 11 13  4  0  0  0  0
 12 14  4  0  0  0  0
 13 15  4  0  0  0  0
 15 16  4  0  0  0  0
 16 24  4  0  0  0  0
  5 17  1  0  0  0  0
  8 17  1  0  0  0  0
 18 19  4  0  0  0  0
 18 23  4  0  0  0  0
 10 20  4  0  0  0  0
 12 20  4  0  0  0  0
 14 21  4  0  0  0  0
 20 22  4  0  0  0  0
 21 22  4  0  0  0  0
 22 23  4  0  0  0  0
  1 24  1  0  0  0  0
  9 24  4  0  0  0  0
M  END
>  <pdb_header>
REMARK --------------------- added by autoBUSTER ---------------------------------START
REMARK run at   = Mon Mar 27 16:29:57 BST 2023
REMARK     in   = /dls/labxchem/data/lb32627/lb32627-1/processing/analysis/model_building/SARS2_Mac1A-A0035
REMARK     user = ill13029
REMARK     cmd  = \
REMARK            /dls_sw/apps/GPhL/BUSTER/20221121/autoBUSTER/bin/linux64/refine \
REMARK            -p \
REMARK            /dls/labxchem/data/lb32627/lb32627-1/processing/analysis/model_building/SARS2_Mac1A-A0035/cootOut/Refine_14/in.pdb \
REMARK            -m \
REMARK            /dls/labxchem/data/lb32627/lb32627-1/processing/analysis/model_building/SARS2_Mac1A-A0035/SARS2_Mac1A-A0035.free.mtz \
REMARK            -l \
REMARK            /dls/labxchem/data/lb32627/lb32627-1/processing/analysis/model_building/SARS2_Mac1A-A0035/ASAP-0000035-001.cif \
REMARK            -autoncs -M ADP -d Refine_14
REMARK Files used:
REMARK   PDB              = Refine_14/pdbchk.pdb
REMARK   MTZ              = /dls/labxchem/data/lb32627/lb32627-1/processing/analysis/model_building/SARS2_Mac1A-A0035/SARS2_Mac1A-A0035.free.mtz
REMARK output written to subdirectory = Refine_14
REMARK best refinement for F,SIGF with R/Rfree 0.2033/0.2354
REMARK header records are copied from input PDB file (apart from REMARK 3!)
REMARK --------------------- added by autoBUSTER -----------------------------------END
REMARK --------------------- added by autoBUSTER -------------------------------
REMARK run at   = Thu Dec 15 23:51:05 GMT 2022                                  
REMARK     in   = /dls/labxchem/data/lb32627/lb32627-1/processing/analysis/model
REMARK     user = ill13029                                                      
REMARK     cmd  = \                                                             
REMARK            /dls_sw/apps/GPhL/BUSTER/20220608/autoBUSTER/bin/linux64/refin
REMARK            -p \                                                          
REMARK            /dls/labxchem/data/lb32627/lb32627-1/processing/analysis/model
REMARK            -m \                                                          
REMARK            /dls/labxchem/data/lb32627/lb32627-1/processing/analysis/model
REMARK            -l \                                                          
REMARK            /dls/labxchem/data/lb32627/lb32627-1/processing/analysis/model
REMARK            -autoncs -M ADP -d Refine_12                                  
REMARK Files used:                                                              
REMARK   PDB              = Refine_12/pdbchk.pdb                                
REMARK   MTZ              = /dls/labxchem/data/lb32627/lb32627-1/processing/anal
REMARK output written to subdirectory = Refine_12                               
REMARK best refinement for F,SIGF with R/Rfree 0.2004/0.2312                    
REMARK header records are copied from input PDB file (apart from REMARK 3!)     
REMARK --------------------- added by autoBUSTER -------------------------------
REMARK --------------------- added by autoBUSTER -------------------------------
REMARK run at   = Wed Dec 14 20:22:13 GMT 2022                                  
REMARK     in   = /dls/labxchem/data/lb32627/lb32627-1/processing/analysis/model
REMARK     user = ill13029                                                      
REMARK     cmd  = \                                                             
REMARK            /dls_sw/apps/GPhL/BUSTER/20220608/autoBUSTER/bin/linux64/refin
REMARK            -p \                                                          
REMARK            /dls/labxchem/data/lb32627/lb32627-1/processing/analysis/model
REMARK            -m \                                                          
REMARK            /dls/labxchem/data/lb32627/lb32627-1/processing/analysis/model
REMARK            -l \                                                          
REMARK            /dls/labxchem/data/lb32627/lb32627-1/processing/analysis/model
REMARK            -autoncs -M ADP -d Refine_11                                  
REMARK Files used:                                                              
REMARK   PDB              = Refine_11/pdbchk.pdb                                
REMARK   MTZ              = /dls/labxchem/data/lb32627/lb32627-1/processing/anal
REMARK output written to subdirectory = Refine_11                               
REMARK best refinement for F,SIGF with R/Rfree 0.2072/0.2435                    
REMARK header records are copied from input PDB file (apart from REMARK 3!)     
REMARK --------------------- added by autoBUSTER -------------------------------
REMARK --------------------- added by autoBUSTER -------------------------------
REMARK run at   = Wed Dec 14 19:59:03 GMT 2022                                  
REMARK     in   = /dls/labxchem/data/lb32627/lb32627-1/processing/analysis/model
REMARK     user = ill13029                                                      
REMARK     cmd  = \                                                             
REMARK            /dls_sw/apps/GPhL/BUSTER/20220608/autoBUSTER/bin/linux64/refin
REMARK            -p \                                                          
REMARK            /dls/labxchem/data/lb32627/lb32627-1/processing/analysis/model
REMARK            -m \                                                          
REMARK            /dls/labxchem/data/lb32627/lb32627-1/processing/analysis/model
REMARK            -l \                                                          
REMARK            /dls/labxchem/data/lb32627/lb32627-1/processing/analysis/model
REMARK            -autoncs -M TLSbasic -d Refine_10                             
REMARK Files used:                                                              
REMARK   PDB              = Refine_10/pdbchk.pdb                                
REMARK   MTZ              = /dls/labxchem/data/lb32627/lb32627-1/processing/anal
REMARK output written to subdirectory = Refine_10                               
REMARK best refinement for F,SIGF with R/Rfree 0.2270/0.2542                    
REMARK header records are copied from input PDB file (apart from REMARK 3!)     
REMARK --------------------- added by autoBUSTER -------------------------------
REMARK --------------------- added by autoBUSTER -------------------------------
REMARK run at   = Wed Dec  7 15:57:45 GMT 2022                                  
REMARK     in   = /dls/labxchem/data/lb32627/lb32627-1/processing/analysis/model
REMARK     user = ill13029                                                      
REMARK     cmd  = \                                                             
REMARK            /dls_sw/apps/GPhL/BUSTER/20220608/autoBUSTER/bin/linux64/refin
REMARK            -p \                                                          
REMARK            /dls/labxchem/data/lb32627/lb32627-1/processing/analysis/model
REMARK            -m \                                                          
REMARK            /dls/labxchem/data/lb32627/lb32627-1/processing/analysis/model
REMARK            -l \                                                          
REMARK            /dls/labxchem/data/lb32627/lb32627-1/processing/analysis/model
REMARK            -autoncs -M ADP -d Refine_9                                   
REMARK Files used:                                                              
REMARK   PDB              = Refine_9/pdbchk.pdb                                 
REMARK   MTZ              = /dls/labxchem/data/lb32627/lb32627-1/processing/anal
REMARK output written to subdirectory = Refine_9                                
REMARK best refinement for F,SIGF with R/Rfree 0.2092/0.2425                    
REMARK header records are copied from input PDB file (apart from REMARK 3!)     
REMARK --------------------- added by autoBUSTER -------------------------------
REMARK --------------------- added by autoBUSTER -------------------------------
REMARK run at   = Fri Dec  2 14:51:03 GMT 2022                                  
REMARK     in   = /dls/labxchem/data/lb32627/lb32627-1/processing/analysis/model
REMARK     user = ill13029                                                      
REMARK     cmd  = \                                                             
REMARK            /dls_sw/apps/GPhL/BUSTER/20220608/autoBUSTER/bin/linux64/refin
REMARK            -p \                                                          
REMARK            /dls/labxchem/data/lb32627/lb32627-1/processing/analysis/model
REMARK            -m \                                                          
REMARK            /dls/labxchem/data/lb32627/lb32627-1/processing/analysis/model
REMARK            -l \                                                          
REMARK            /dls/labxchem/data/lb32627/lb32627-1/processing/analysis/model
REMARK            -autoncs -M ADP -d Refine_8                                   
REMARK Files used:                                                              
REMARK   PDB              = Refine_8/pdbchk.pdb                                 
REMARK   MTZ              = /dls/labxchem/data/lb32627/lb32627-1/processing/anal
REMARK output written to subdirectory = Refine_8                                
REMARK best refinement for F,SIGF with R/Rfree 0.2072/0.2430                    
REMARK header records are copied from input PDB file (apart from REMARK 3!)     
REMARK --------------------- added by autoBUSTER -------------------------------
REMARK --------------------- added by autoBUSTER -------------------------------
REMARK run at   = Fri Dec  2 14:02:51 GMT 2022                                  
REMARK     in   = /dls/labxchem/data/lb32627/lb32627-1/processing/analysis/model
REMARK     user = ill13029                                                      
REMARK     cmd  = \                                                             
REMARK            /dls_sw/apps/GPhL/BUSTER/20220608/autoBUSTER/bin/linux64/refin
REMARK            -p \                                                          
REMARK            /dls/labxchem/data/lb32627/lb32627-1/processing/analysis/model
REMARK            -m \                                                          
REMARK            /dls/labxchem/data/lb32627/lb32627-1/processing/analysis/model
REMARK            -l \                                                          
REMARK            /dls/labxchem/data/lb32627/lb32627-1/processing/analysis/model
REMARK            -autoncs -M ADP -B user -Gelly gelly.dat -d Refine_7          
REMARK Files used:                                                              
REMARK   PDB              = Refine_7/pdbchk.pdb                                 
REMARK   MTZ              = /dls/labxchem/data/lb32627/lb32627-1/processing/anal
REMARK   Gelly commands       = /dls/labxchem/data/lb32627/lb32627-1/processing/
REMARK output written to subdirectory = Refine_7                                
REMARK best refinement for F,SIGF with R/Rfree 0.2048/0.2405                    
REMARK header records are copied from input PDB file (apart from REMARK 3!)     
REMARK --------------------- added by autoBUSTER -------------------------------
REMARK --------------------- added by autoBUSTER -------------------------------
REMARK run at   = Fri Dec  2 11:52:11 GMT 2022                                  
REMARK     in   = /dls/labxchem/data/lb32627/lb32627-1/processing/analysis/model
REMARK     user = ill13029                                                      
REMARK     cmd  = \                                                             
REMARK            /dls_sw/apps/GPhL/BUSTER/20220608/autoBUSTER/bin/linux64/refin
REMARK            -p \                                                          
REMARK            /dls/labxchem/data/lb32627/lb32627-1/processing/analysis/model
REMARK            -m \                                                          
REMARK            /dls/labxchem/data/lb32627/lb32627-1/processing/analysis/model
REMARK            -l \                                                          
REMARK            /dls/labxchem/data/lb32627/lb32627-1/processing/analysis/model
REMARK            -autoncs -M TLSbasic -d Refine_6                              
REMARK Files used:                                                              
REMARK   PDB              = Refine_6/pdbchk.pdb                                 
REMARK   MTZ              = /dls/labxchem/data/lb32627/lb32627-1/processing/anal
REMARK output written to subdirectory = Refine_6                                
REMARK best refinement for F,SIGF with R/Rfree 0.2290/0.2577                    
REMARK header records are copied from input PDB file (apart from REMARK 3!)     
REMARK --------------------- added by autoBUSTER -------------------------------
REMARK --------------------- added by autoBUSTER -------------------------------
REMARK run at   = Thu Dec  1 21:35:10 GMT 2022                                  
REMARK     in   = /dls/labxchem/data/lb32627/lb32627-1/processing/analysis/model
REMARK     user = ill13029                                                      
REMARK     cmd  = \                                                             
REMARK            /dls_sw/apps/GPhL/BUSTER/20220608/autoBUSTER/bin/linux64/refin
REMARK            -p cootOut/Refine_5/in.pdb -m SARS2_Mac1A-A0035.free.mtz -l \ 
REMARK            ASAP-0000035-001.cif -d Buster01                              
REMARK Files used:                                                              
REMARK   PDB              = Buster01/pdbchk.pdb                                 
REMARK   MTZ              = /dls/labxchem/data/lb32627/lb32627-1/processing/anal
REMARK output written to subdirectory = Buster01                                
REMARK best refinement for F,SIGF with R/Rfree 0.2243/0.2481                    
REMARK header records are copied from input PDB file (apart from REMARK 3!)     
REMARK --------------------- added by autoBUSTER -------------------------------
HEADER    ----                                    18-MAY-20                     
TITLE     ---                                                                   
COMPND    ---                                                                   
EXPDTA    X-RAY DIFFRACTION
REMARK   2                                                            
REMARK   2 RESOLUTION.    1.12 ANGSTROMS.
REMARK   3
REMARK   3 REFINEMENT.
REMARK   3   PROGRAM     : BUSTER 2.10.4 (21-NOV-2022)
REMARK   3   AUTHORS     : BRICOGNE,BLANC,BRANDL,FLENSBURG,KELLER,
REMARK   3               : PACIOREK,ROVERSI,SHARFF,SMART,VONRHEIN,WOMACK;
REMARK   3               : MATTHEWS,TEN EYCK,TRONRUD
REMARK   3
REMARK   3  DATA USED IN REFINEMENT.
REMARK   3   RESOLUTION RANGE HIGH (ANGSTROMS) : 1.123
REMARK   3   RESOLUTION RANGE LOW  (ANGSTROMS) : 88.80
REMARK   3   DATA CUTOFF            (SIGMA(F)) : 0.000
REMARK   3   COMPLETENESS FOR RANGE        (%) : 93.6
REMARK   3   NUMBER OF REFLECTIONS             : 109770
REMARK   3
REMARK   3  FIT TO DATA USED IN REFINEMENT.
REMARK   3   CROSS-VALIDATION METHOD          : THROUGHOUT
REMARK   3   FREE R VALUE TEST SET SELECTION  : RANDOM
REMARK   3   R VALUE     (WORKING + TEST SET) : 0.2049
REMARK   3   R VALUE            (WORKING SET) : 0.2033
REMARK   3   FREE R VALUE                     : 0.2354
REMARK   3   FREE R VALUE TEST SET SIZE   (%) : 5.040
REMARK   3   FREE R VALUE TEST SET COUNT      : 5533
REMARK   3   ESTIMATED ERROR OF FREE R VALUE  : NULL
REMARK   3
REMARK   3  FIT IN THE HIGHEST RESOLUTION BIN.
REMARK   3   TOTAL NUMBER OF BINS USED           : 51
REMARK   3   BIN RESOLUTION RANGE HIGH       (A) : 1.12
REMARK   3   BIN RESOLUTION RANGE LOW        (A) : 1.15
REMARK   3   BIN COMPLETENESS (WORKING+TEST) (%) : 31.89
REMARK   3   REFLECTIONS IN BIN   (WORKING+TEST) : 2196
REMARK   3   BIN R VALUE          (WORKING+TEST) : 0.3949
REMARK   3   REFLECTIONS IN BIN    (WORKING SET) : 2083
REMARK   3   BIN R VALUE           (WORKING SET) : 0.3941
REMARK   3   BIN FREE R VALUE                    : 0.4106
REMARK   3   BIN FREE R VALUE TEST SET SIZE  (%) : 5.15
REMARK   3   BIN FREE R VALUE TEST SET COUNT     : 113
REMARK   3   ESTIMATED ERROR OF BIN FREE R VALUE : NULL
REMARK   3
REMARK   3  NUMBER OF NON-HYDROGEN ATOMS USED IN REFINEMENT.
REMARK   3   PROTEIN ATOMS            : 2527
REMARK   3   NUCLEIC ACID ATOMS       : 0
REMARK   3   HETEROGEN ATOMS          : 24
REMARK   3   SOLVENT ATOMS            : 423
REMARK   3
REMARK   3  B VALUES.
REMARK   3   FROM WILSON PLOT           (A**2) : 15.41
REMARK   3   MEAN B VALUE      (OVERALL, A**2) : 26.07
REMARK   3   OVERALL ANISOTROPIC B VALUE.
REMARK   3    B11 (A**2) : 2.11680
REMARK   3    B22 (A**2) : 2.11680
REMARK   3    B33 (A**2) : -4.23360
REMARK   3    B12 (A**2) : 0.00000
REMARK   3    B13 (A**2) : 0.00000
REMARK   3    B23 (A**2) : 0.00000
REMARK   3
REMARK   3  ESTIMATED COORDINATE ERROR.
REMARK   3   ESD FROM LUZZATI PLOT                    (A) : 0.17
REMARK   3   DPI (BLOW EQ-10) BASED ON R VALUE        (A) : 0.043
REMARK   3   DPI (BLOW EQ-9) BASED ON FREE R VALUE    (A) : 0.047
REMARK   3   DPI (CRUICKSHANK) BASED ON R VALUE       (A) : 0.041
REMARK   3   DPI (CRUICKSHANK) BASED ON FREE R VALUE  (A) : 0.045
REMARK   3
REMARK   3   REFERENCES: BLOW, D. (2002) ACTA CRYST D58, 792-797
REMARK   3               CRUICKSHANK, D.W.J. (1999) ACTA CRYST D55, 583-601
REMARK   3
REMARK   3  CORRELATION COEFFICIENTS.
REMARK   3   CORRELATION COEFFICIENT FO-FC      : 0.955
REMARK   3   CORRELATION COEFFICIENT FO-FC FREE : 0.934
REMARK   3
REMARK   3  X-RAY WEIGHT : 4.50
REMARK   3
REMARK   3  GEOMETRY FUNCTION.                                                  
REMARK   3   RESTRAINT LIBRARIES.                                               
REMARK   3    NUMBER OF LIBRARIES USED :   8                                    
REMARK   3    LIBRARY  1 : protgeo_eh99.dat (V1.6.4.20) 20220523  STANDARD      
REMARK   3                 AMINO ACID DICTIONARY. BONDS AND ANGLES FROM         
REMARK   3                 ENGH AND HUBER EH99. OTHER VALUES BASED ON           
REMARK   3                 PREVIOUS TNT OR TAKEN FROM CCP4. INCLUDES            
REMARK   3                 HYDROGEN ATOMS.                                      
REMARK   3    LIBRARY  2 : exoticaa.dat (V1.3.4.16) 20220523  COLLECTION        
REMARK   3                 OF NON-STANDARD AMINO ACIDS, MAINLY EH91             
REMARK   3                 WITHOUT IDEAL DISTANCE INFO                          
REMARK   3    LIBRARY  3 : nuclgeo.dat (V1.13.4.9) 20221011                     
REMARK   3    LIBRARY  4 : bcorrel.dat (V1.15.10.2) 20190616                    
REMARK   3    LIBRARY  5 : contact.dat (V1.15.12.10) 20191121                   
REMARK   3    LIBRARY  6 : idealdist_contact.dat (V1.3.4.13) 20220125           
REMARK   3                 IDEAL-DISTANCE CONTACT TERM DATA AS USED IN          
REMARK   3                 PROLSQ. VALUES USED HERE ARE BASED ON DATA           
REMARK   3                 HARVESTING OF PDB AS OF 20190109.                    
REMARK   3    LIBRARY  7 : restraints for LIG (unknown) from cif                
REMARK   3                 dictionary ASAP-0000035-001.cif; generated by        
REMARK   3                 GRADE 1.2.21 (Feb 03 2022) from SMILES               
REMARK   3                 CN1CCOc2cccc(NC(=O)Nc3cnc4[nH]ncc4c3)c21 using       
REMARK   3                 MOGUL 1.8.5(274361), CSD as541be, with quantum       
REMARK   3                 mechanics RM1                                        
REMARK   3    LIBRARY  8 : assume.dat (V1.9.4.3) 20221011                       
REMARK   3                                                                      
REMARK   3   NUMBER OF GEOMETRIC FUNCTION TERMS DEFINED : 15                    
REMARK   3   TERM                          COUNT    WEIGHT   FUNCTION.          
REMARK   3    BOND LENGTHS              :   2632 ;   2.00 ;  HARMONIC           
REMARK   3    BOND ANGLES               :   3586 ;   2.00 ;  HARMONIC           
REMARK   3    TORSION ANGLES            :    897 ;   2.00 ;  SINUSOIDAL         
REMARK   3    TRIGONAL CARBON PLANES    :   NULL ;   NULL ;  NULL               
REMARK   3    GENERAL PLANES            :    477 ;   5.00 ;  HARMONIC           
REMARK   3    ISOTROPIC THERMAL FACTORS :   2605 ;  10.00 ;  HARMONIC           
REMARK   3    BAD NON-BONDED CONTACTS   :   NULL ;   NULL ;  NULL               
REMARK   3    IMPROPER TORSIONS         :   NULL ;   NULL ;  NULL               
REMARK   3    PSEUDOROTATION ANGLES     :   NULL ;   NULL ;  NULL               
REMARK   3    CHIRAL IMPROPER TORSION   :    337 ;   5.00 ;  SEMIHARMONIC       
REMARK   3    SUM OF OCCUPANCIES        :   NULL ;   NULL ;  NULL               
REMARK   3    UTILITY DISTANCES         :   NULL ;   NULL ;  NULL               
REMARK   3    UTILITY ANGLES            :   NULL ;   NULL ;  NULL               
REMARK   3    UTILITY TORSION           :   NULL ;   NULL ;  NULL               
REMARK   3    IDEAL-DIST CONTACT TERM   :   2808 ;   4.00 ;  SEMIHARMONIC       
REMARK   3                                                                      
REMARK   3   RMS DEVIATIONS FROM IDEAL VALUES.                                  
REMARK   3   BOND LENGTHS                       (A) : 0.014                     
REMARK   3   BOND ANGLES                  (DEGREES) : 1.49                      
REMARK   3   PEPTIDE OMEGA TORSION ANGLES (DEGREES) : 4.88                      
REMARK   3   OTHER TORSION ANGLES         (DEGREES) : 15.07                     
REMARK   3                                                                      
REMARK   3   SIMILARITY.                                                        
REMARK   3    NCS.                                                              
REMARK   3     NCS METHOD: RESTRAINT LSSR (-AUTONCS)                            
REMARK   3    TARGET RESTRAINTS.                                                
REMARK   3     TARGET REPRESENTATION : NONE                                     
REMARK   3     TARGET STRUCTURE : NULL                                          
REMARK   3                                                                      
REMARK   3  TLS DETAILS.                                                        
REMARK   3   NUMBER OF TLS GROUPS  :            0                               
REMARK   3                                                                      
REMARK   3  REFINEMENT NOTES.                                                   
REMARK   3   NUMBER OF REFINEMENT NOTES :   1                                   
REMARK   3   NOTE   1 : IDEAL-DIST CONTACT TERM CONTACT SETUP. ALL ATOMS        
REMARK   3               HAVE CCP4 ATOM TYPE FROM LIBRARY                       
REMARK   3
REMARK   3  OTHER REFINEMENT REMARKS: NULL
REMARK   3
REMARK 290                                                            
REMARK 290 CRYSTALLOGRAPHIC SYMMETRY                                  
REMARK 290 SYMMETRY OPERATORS FOR SPACE GROUP: P 43                   
REMARK 290                                                            
REMARK 290      SYMOP   SYMMETRY                                      
REMARK 290     NNNMMM   OPERATOR                                      
REMARK 290       1555   X,Y,Z                                         
REMARK 290       2555   -X,-Y,1/2+Z                                   
REMARK 290       3555   -Y,X,3/4+Z                                    
REMARK 290       4555   Y,-X,1/4+Z                                    
REMARK 290                                                            
REMARK 290     WHERE NNN -> OPERATOR NUMBER                           
REMARK 290           MMM -> TRANSLATION VECTOR                        
REMARK 290                                                            
REMARK 290 CRYSTALLOGRAPHIC SYMMETRY TRANSFORMATIONS                  
REMARK 290 THE FOLLOWING TRANSFORMATIONS OPERATE ON THE ATOM/HETATM   
REMARK 290 RECORDS IN THIS ENTRY TO PRODUCE CRYSTALLOGRAPHICALLY      
REMARK 290 RELATED MOLECULES.                                         
REMARK 290   SMTRY1   1  1.000000  0.000000  0.000000        0.00000
REMARK 290   SMTRY2   1  0.000000  1.000000  0.000000        0.00000
REMARK 290   SMTRY3   1  0.000000  0.000000  1.000000        0.00000
REMARK 290   SMTRY1   2 -1.000000  0.000000  0.000000        0.00000
REMARK 290   SMTRY2   2  0.000000 -1.000000  0.000000        0.00000
REMARK 290   SMTRY3   2  0.000000  0.000000  1.000000       19.70600
REMARK 290   SMTRY1   3  0.000000 -1.000000  0.000000        0.00000
REMARK 290   SMTRY2   3  1.000000  0.000000  0.000000        0.00000
REMARK 290   SMTRY3   3  0.000000  0.000000  1.000000       29.55900
REMARK 290   SMTRY1   4  0.000000  1.000000  0.000000        0.00000
REMARK 290   SMTRY2   4 -1.000000  0.000000  0.000000        0.00000
REMARK 290   SMTRY3   4  0.000000  0.000000  1.000000        9.85300
REMARK 290                                                            
REMARK 290 REMARK: NULL                                               
CRYST1   88.797   88.797   39.412  90.00  90.00  90.00 P 43           


$$$$
SARS2_Mac1A-A0049
  PyMOL3.0          3D                             0

 22 25  0  0  0  0  0  0  0  0999 V2000
   -2.3560   10.5790   -4.8060 N   0  0  0  0  0  0  0  0  0  0  0  0
   -0.0590    8.7500   -7.8720 C   0  0  0  0  0  0  0  0  0  0  0  0
   -0.9330    9.3870   -6.8260 C   0  0  0  0  0  0  0  0  0  0  0  0
   -0.4340   14.1300   -2.4000 N   0  0  0  0  0  0  0  0  0  0  0  0
   -2.1070    8.7990   -6.3830 C   0  0  0  0  0  0  0  0  0  0  0  0
    0.2730   14.1390   -0.2480 N   0  0  0  0  0  0  0  0  0  0  0  0
   -2.7920    9.4440   -5.3730 C   0  0  0  0  0  0  0  0  0  0  0  0
   -0.9440   15.0740    1.6370 N   0  0  0  0  0  0  0  0  0  0  0  0
   -1.2170   11.0860   -5.3020 C   0  0  0  0  0  0  0  0  0  0  0  0
   -3.2020   15.7530    1.1150 N   0  0  0  0  0  0  0  0  0  0  0  0
   -0.6770   12.3620   -4.6810 C   0  0  0  0  0  0  0  0  0  0  0  0
   -0.5000   10.5530   -6.3110 N   0  0  0  0  0  0  0  0  0  0  0  0
   -1.7980   13.3070   -4.2150 C   0  0  0  0  0  0  0  0  0  0  0  0
   -1.1980   14.5630   -3.5660 C   0  0  0  0  0  0  0  0  0  0  0  0
   -0.7120   14.4690   -1.0890 C   0  0  0  0  0  0  0  0  0  0  0  0
    0.1160   14.5150    1.0420 C   0  0  0  0  0  0  0  0  0  0  0  0
   -1.9560   15.2890    0.7790 C   0  0  0  0  0  0  0  0  0  0  0  0
   -3.9630   15.8070   -0.0320 C   0  0  0  0  0  0  0  0  0  0  0  0
   -3.2450   15.3770   -1.0980 C   0  0  0  0  0  0  0  0  0  0  0  0
   -1.9320   15.0450   -0.6050 C   0  0  0  0  0  0  0  0  0  0  0  0
    0.6920   13.2510   -2.7570 C   0  0  0  0  0  0  0  0  0  0  0  0
    0.2170   12.0080   -3.4880 C   0  0  0  0  0  0  0  0  0  0  0  0
  1  7  4  0  0  0  0
  2  3  1  0  0  0  0
  3  5  4  0  0  0  0
  3 12  4  0  0  0  0
  4 14  1  0  0  0  0
  4 15  1  0  0  0  0
  5  7  4  0  0  0  0
  8 16  4  0  0  0  0
  1  9  4  0  0  0  0
  9 11  1  0  0  0  0
 10 17  4  0  0  0  0
 11 13  1  0  0  0  0
 11 22  1  0  0  0  0
  9 12  4  0  0  0  0
 13 14  1  0  0  0  0
  6 15  4  0  0  0  0
 15 20  4  0  0  0  0
  6 16  4  0  0  0  0
  8 17  4  0  0  0  0
 10 18  4  0  0  0  0
 18 19  4  0  0  0  0
 17 20  4  0  0  0  0
 19 20  4  0  0  0  0
  4 21  1  0  0  0  0
 21 22  1  0  0  0  0
M  END
>  <pdb_header>
HEADER    ----                                    18-MAY-20                     
TITLE     ---                                                                   
EXPDTA    X-RAY DIFFRACTION                                                     
REMARK --------------------- added by autoBUSTER ---------------------------------START
REMARK run at   = Wed Dec  7 15:59:13 GMT 2022
REMARK     in   = /dls/labxchem/data/lb32627/lb32627-1/processing/analysis/model_building/SARS2_Mac1A-A0049
REMARK     user = ill13029
REMARK     cmd  = \
REMARK            /dls_sw/apps/GPhL/BUSTER/20220608/autoBUSTER/bin/linux64/refine \
REMARK            -p \
REMARK            /dls/labxchem/data/lb32627/lb32627-1/processing/analysis/model_building/SARS2_Mac1A-A0049/cootOut/Refi
REMARK            -m \
REMARK            /dls/labxchem/data/lb32627/lb32627-1/processing/analysis/model_building/SARS2_Mac1A-A0049/SARS2_Mac1A-
REMARK            -l \
REMARK            /dls/labxchem/data/lb32627/lb32627-1/processing/analysis/model_building/SARS2_Mac1A-A0049/ASAP-0000050
REMARK            -autoncs -M ADP -d Refine_8
REMARK Files used:
REMARK   PDB              = Refine_8/pdbchk.pdb
REMARK   MTZ              = /dls/labxchem/data/lb32627/lb32627-1/processing/analysis/model_building/SARS2_Mac1A-A0049/SA
REMARK output written to subdirectory = Refine_8
REMARK best refinement for F,SIGF with R/Rfree 0.1609/0.1922
REMARK header records are copied from input PDB file (apart from REMARK 3!)
REMARK --------------------- added by autoBUSTER -----------------------------------END
REMARK --------------------- added by autoBUSTER -------------------------------
REMARK run at   = Wed Dec  7 10:55:43 GMT 2022                                  
REMARK     in   = /dls/labxchem/data/lb32627/lb32627-1/processing/analysis/model
REMARK     user = ill13029                                                      
REMARK     cmd  = \                                                             
REMARK            /dls_sw/apps/GPhL/BUSTER/20220608/autoBUSTER/bin/linux64/refin
REMARK            -p \                                                          
REMARK            /dls/labxchem/data/lb32627/lb32627-1/processing/analysis/model
REMARK            -m \                                                          
REMARK            /dls/labxchem/data/lb32627/lb32627-1/processing/analysis/model
REMARK            -l \                                                          
REMARK            /dls/labxchem/data/lb32627/lb32627-1/processing/analysis/model
REMARK            -autoncs -M ADP -d Refine_7                                   
REMARK Files used:                                                              
REMARK   PDB              = Refine_7/pdbchk.pdb                                 
REMARK   MTZ              = /dls/labxchem/data/lb32627/lb32627-1/processing/anal
REMARK output written to subdirectory = Refine_7                                
REMARK best refinement for F,SIGF with R/Rfree 0.1611/0.1926                    
REMARK header records are copied from input PDB file (apart from REMARK 3!)     
REMARK --------------------- added by autoBUSTER -------------------------------
REMARK --------------------- added by autoBUSTER -------------------------------
REMARK run at   = Tue Nov 29 10:15:53 GMT 2022                                  
REMARK     in   = /dls/labxchem/data/lb32627/lb32627-1/processing/analysis/model
REMARK     user = ill13029                                                      
REMARK     cmd  = \                                                             
REMARK            /dls_sw/apps/GPhL/BUSTER/20220608/autoBUSTER/bin/linux64/refin
REMARK            -p \                                                          
REMARK            /dls/labxchem/data/lb32627/lb32627-1/processing/analysis/model
REMARK            -m \                                                          
REMARK            /dls/labxchem/data/lb32627/lb32627-1/processing/analysis/model
REMARK            -l \                                                          
REMARK            /dls/labxchem/data/lb32627/lb32627-1/processing/analysis/model
REMARK            -autoncs -M TLSbasic -d Refine_6                              
REMARK Files used:                                                              
REMARK   PDB              = Refine_6/pdbchk.pdb                                 
REMARK   MTZ              = /dls/labxchem/data/lb32627/lb32627-1/processing/anal
REMARK output written to subdirectory = Refine_6                                
REMARK best refinement for F,SIGF with R/Rfree 0.1940/0.2207                    
REMARK header records are copied from input PDB file (apart from REMARK 3!)     
REMARK --------------------- added by autoBUSTER -------------------------------
REMARK   2                                                            
REMARK   2 RESOLUTION.    1.05 ANGSTROMS.
REMARK   3
REMARK   3 REFINEMENT.
REMARK   3   PROGRAM     : BUSTER 2.10.4 (8-JUN-2022)
REMARK   3   AUTHORS     : BRICOGNE,BLANC,BRANDL,FLENSBURG,KELLER,
REMARK   3               : PACIOREK,ROVERSI,SHARFF,SMART,VONRHEIN,WOMACK;
REMARK   3               : MATTHEWS,TEN EYCK,TRONRUD
REMARK   3
REMARK   3  DATA USED IN REFINEMENT.
REMARK   3   RESOLUTION RANGE HIGH (ANGSTROMS) : 1.055
REMARK   3   RESOLUTION RANGE LOW  (ANGSTROMS) : 62.77
REMARK   3   DATA CUTOFF            (SIGMA(F)) : 0.000
REMARK   3   COMPLETENESS FOR RANGE        (%) : 84.2
REMARK   3   NUMBER OF REFLECTIONS             : 118657
REMARK   3
REMARK   3  FIT TO DATA USED IN REFINEMENT.
REMARK   3   CROSS-VALIDATION METHOD          : THROUGHOUT
REMARK   3   FREE R VALUE TEST SET SELECTION  : RANDOM
REMARK   3   R VALUE     (WORKING + TEST SET) : 0.1624
REMARK   3   R VALUE            (WORKING SET) : 0.1609
REMARK   3   FREE R VALUE                     : 0.1922
REMARK   3   FREE R VALUE TEST SET SIZE   (%) : 5.040
REMARK   3   FREE R VALUE TEST SET COUNT      : 5986
REMARK   3   ESTIMATED ERROR OF FREE R VALUE  : NULL
REMARK   3
REMARK   3  FIT IN THE HIGHEST RESOLUTION BIN.
REMARK   3   TOTAL NUMBER OF BINS USED           : 51
REMARK   3   BIN RESOLUTION RANGE HIGH       (A) : 1.05
REMARK   3   BIN RESOLUTION RANGE LOW        (A) : 1.09
REMARK   3   BIN COMPLETENESS (WORKING+TEST) (%) : 18.04
REMARK   3   REFLECTIONS IN BIN   (WORKING+TEST) : 2374
REMARK   3   BIN R VALUE          (WORKING+TEST) : 0.4231
REMARK   3   REFLECTIONS IN BIN    (WORKING SET) : 2251
REMARK   3   BIN R VALUE           (WORKING SET) : 0.4211
REMARK   3   BIN FREE R VALUE                    : 0.4611
REMARK   3   BIN FREE R VALUE TEST SET SIZE  (%) : 5.18
REMARK   3   BIN FREE R VALUE TEST SET COUNT     : 123
REMARK   3   ESTIMATED ERROR OF BIN FREE R VALUE : NULL
REMARK   3
REMARK   3  NUMBER OF NON-HYDROGEN ATOMS USED IN REFINEMENT.
REMARK   3   PROTEIN ATOMS            : 2518
REMARK   3   NUCLEIC ACID ATOMS       : 0
REMARK   3   HETEROGEN ATOMS          : 26
REMARK   3   SOLVENT ATOMS            : 453
REMARK   3
REMARK   3  B VALUES.
REMARK   3   FROM WILSON PLOT           (A**2) : 11.19
REMARK   3   MEAN B VALUE      (OVERALL, A**2) : 19.60
REMARK   3   OVERALL ANISOTROPIC B VALUE.
REMARK   3    B11 (A**2) : 2.82130
REMARK   3    B22 (A**2) : 2.82130
REMARK   3    B33 (A**2) : -5.64260
REMARK   3    B12 (A**2) : 0.00000
REMARK   3    B13 (A**2) : 0.00000
REMARK   3    B23 (A**2) : 0.00000
REMARK   3
REMARK   3  ESTIMATED COORDINATE ERROR.
REMARK   3   ESD FROM LUZZATI PLOT                    (A) : 0.12
REMARK   3   DPI (BLOW EQ-10) BASED ON R VALUE        (A) : 0.032
REMARK   3   DPI (BLOW EQ-9) BASED ON FREE R VALUE    (A) : 0.036
REMARK   3   DPI (CRUICKSHANK) BASED ON R VALUE       (A) : 0.030
REMARK   3   DPI (CRUICKSHANK) BASED ON FREE R VALUE  (A) : 0.034
REMARK   3
REMARK   3   REFERENCES: BLOW, D. (2002) ACTA CRYST D58, 792-797
REMARK   3               CRUICKSHANK, D.W.J. (1999) ACTA CRYST D55, 583-601
REMARK   3
REMARK   3  CORRELATION COEFFICIENTS.
REMARK   3   CORRELATION COEFFICIENT FO-FC      : 0.944
REMARK   3   CORRELATION COEFFICIENT FO-FC FREE : 0.913
REMARK   3
REMARK   3  X-RAY WEIGHT : 6.63
REMARK   3
REMARK   3  GEOMETRY FUNCTION.                                                  
REMARK   3   RESTRAINT LIBRARIES.                                               
REMARK   3    NUMBER OF LIBRARIES USED :   9                                    
REMARK   3    LIBRARY  1 : protgeo_eh99.dat (V1.6.4.20) 20220523  STANDARD      
REMARK   3                 AMINO ACID DICTIONARY. BONDS AND ANGLES FROM         
REMARK   3                 ENGH AND HUBER EH99. OTHER VALUES BASED ON           
REMARK   3                 PREVIOUS TNT OR TAKEN FROM CCP4. INCLUDES            
REMARK   3                 HYDROGEN ATOMS.                                      
REMARK   3    LIBRARY  2 : exoticaa.dat (V1.3.4.16) 20220523  COLLECTION        
REMARK   3                 OF NON-STANDARD AMINO ACIDS, MAINLY EH91             
REMARK   3                 WITHOUT IDEAL DISTANCE INFO                          
REMARK   3    LIBRARY  3 : nuclgeo.dat (V1.13.4.8) 20190909                     
REMARK   3    LIBRARY  4 : bcorrel.dat (V1.15.10.2) 20190616                    
REMARK   3    LIBRARY  5 : contact.dat (V1.15.12.10) 20191121                   
REMARK   3    LIBRARY  6 : idealdist_contact.dat (V1.3.4.13) 20220125           
REMARK   3                 IDEAL-DISTANCE CONTACT TERM DATA AS USED IN          
REMARK   3                 PROLSQ. VALUES USED HERE ARE BASED ON DATA           
REMARK   3                 HARVESTING OF PDB AS OF 20190109.                    
REMARK   3    LIBRARY  7 : restraints for LIG (unknown) from cif                
REMARK   3                 dictionary ASAP-0000050-001.cif; generated by        
REMARK   3                 GRADE 1.2.21 (Feb 03 2022) from SMILES               
REMARK   3                 Cc1ccnc(C2CCN(c3ncnc4[nH]ccc34)CC2)n1 using          
REMARK   3                 MOGUL 1.8.5(274361), CSD as541be, with quantum       
REMARK   3                 mechanics RM1                                        
REMARK   3    LIBRARY  8 : restraints for DMS (DIMETHYL SULFOXIDE) from         
REMARK   3                 cif dictionary DMS.cif; generated by grade2          
REMARK   3                 version 1.1.0a7 from                                 
REMARK   3                 PDB_chemical_components_definition_file              
REMARK   3                 ftp://ftp.ebi.ac.uk/pub/databases/msd/pdbechem_v     
REMARK   3                 2/D/DMS/DMS.cif using RDKit 2021.03.4                
REMARK   3                 ((DatabaseID PDB-DMS))                               
REMARK   3    LIBRARY  9 : assume.dat (V1.9.4.2) 20180705                       
REMARK   3                                                                      
REMARK   3   NUMBER OF GEOMETRIC FUNCTION TERMS DEFINED : 15                    
REMARK   3   TERM                          COUNT    WEIGHT   FUNCTION.          
REMARK   3    BOND LENGTHS              :   2624 ;   2.00 ;  HARMONIC           
REMARK   3    BOND ANGLES               :   3573 ;   2.00 ;  HARMONIC           
REMARK   3    TORSION ANGLES            :    898 ;   2.00 ;  SINUSOIDAL         
REMARK   3    TRIGONAL CARBON PLANES    :   NULL ;   NULL ;  NULL               
REMARK   3    GENERAL PLANES            :    467 ;   5.00 ;  HARMONIC           
REMARK   3    ISOTROPIC THERMAL FACTORS :   2596 ;  10.00 ;  HARMONIC           
REMARK   3    BAD NON-BONDED CONTACTS   :   NULL ;   NULL ;  NULL               
REMARK   3    IMPROPER TORSIONS         :   NULL ;   NULL ;  NULL               
REMARK   3    PSEUDOROTATION ANGLES     :   NULL ;   NULL ;  NULL               
REMARK   3    CHIRAL IMPROPER TORSION   :    336 ;   5.00 ;  SEMIHARMONIC       
REMARK   3    SUM OF OCCUPANCIES        :   NULL ;   NULL ;  NULL               
REMARK   3    UTILITY DISTANCES         :   NULL ;   NULL ;  NULL               
REMARK   3    UTILITY ANGLES            :   NULL ;   NULL ;  NULL               
REMARK   3    UTILITY TORSION           :   NULL ;   NULL ;  NULL               
REMARK   3    IDEAL-DIST CONTACT TERM   :   2982 ;   4.00 ;  SEMIHARMONIC       
REMARK   3                                                                      
REMARK   3   RMS DEVIATIONS FROM IDEAL VALUES.                                  
REMARK   3   BOND LENGTHS                       (A) : 0.015                     
REMARK   3   BOND ANGLES                  (DEGREES) : 1.37                      
REMARK   3   PEPTIDE OMEGA TORSION ANGLES (DEGREES) : 5.76                      
REMARK   3   OTHER TORSION ANGLES         (DEGREES) : 14.25                     
REMARK   3                                                                      
REMARK   3   SIMILARITY.                                                        
REMARK   3    NCS.                                                              
REMARK   3     NCS METHOD: RESTRAINT LSSR (-AUTONCS)                            
REMARK   3    TARGET RESTRAINTS.                                                
REMARK   3     TARGET REPRESENTATION : NONE                                     
REMARK   3     TARGET STRUCTURE : NULL                                          
REMARK   3                                                                      
REMARK   3  TLS DETAILS.                                                        
REMARK   3   NUMBER OF TLS GROUPS  :            0                               
REMARK   3                                                                      
REMARK   3  REFINEMENT NOTES.                                                   
REMARK   3   NUMBER OF REFINEMENT NOTES :   1                                   
REMARK   3   NOTE   1 : IDEAL-DIST CONTACT TERM CONTACT SETUP. ALL ATOMS        
REMARK   3               HAVE CCP4 ATOM TYPE FROM LIBRARY                       
REMARK   3
REMARK   3  OTHER REFINEMENT REMARKS: NULL
REMARK   3
REMARK 290                                                            
REMARK 290 CRYSTALLOGRAPHIC SYMMETRY                                  
REMARK 290 SYMMETRY OPERATORS FOR SPACE GROUP: P 43                   
REMARK 290                                                            
REMARK 290      SYMOP   SYMMETRY                                      
REMARK 290     NNNMMM   OPERATOR                                      
REMARK 290       1555   X,Y,Z                                         
REMARK 290       2555   -X,-Y,1/2+Z                                   
REMARK 290       3555   -Y,X,3/4+Z                                    
REMARK 290       4555   Y,-X,1/4+Z                                    
REMARK 290                                                            
REMARK 290     WHERE NNN -> OPERATOR NUMBER                           
REMARK 290           MMM -> TRANSLATION VECTOR                        
REMARK 290                                                            
REMARK 290 CRYSTALLOGRAPHIC SYMMETRY TRANSFORMATIONS                  
REMARK 290 THE FOLLOWING TRANSFORMATIONS OPERATE ON THE ATOM/HETATM   
REMARK 290 RECORDS IN THIS ENTRY TO PRODUCE CRYSTALLOGRAPHICALLY      
REMARK 290 RELATED MOLECULES.                                         
REMARK 290   SMTRY1   1  1.000000  0.000000  0.000000        0.00000
REMARK 290   SMTRY2   1  0.000000  1.000000  0.000000        0.00000
REMARK 290   SMTRY3   1  0.000000  0.000000  1.000000        0.00000
REMARK 290   SMTRY1   2 -1.000000  0.000000  0.000000        0.00000
REMARK 290   SMTRY2   2  0.000000 -1.000000  0.000000        0.00000
REMARK 290   SMTRY3   2  0.000000  0.000000  1.000000       19.65400
REMARK 290   SMTRY1   3  0.000000 -1.000000  0.000000        0.00000
REMARK 290   SMTRY2   3  1.000000  0.000000  0.000000        0.00000
REMARK 290   SMTRY3   3  0.000000  0.000000  1.000000       29.48100
REMARK 290   SMTRY1   4  0.000000  1.000000  0.000000        0.00000
REMARK 290   SMTRY2   4 -1.000000  0.000000  0.000000        0.00000
REMARK 290   SMTRY3   4  0.000000  0.000000  1.000000        9.82700
REMARK 290                                                            
REMARK 290 REMARK: NULL                                               
REMARK 300
REMARK 300 BIOMOLECULE: 1, 2
REMARK 300 SEE REMARK 350 FOR THE AUTHOR PROVIDED AND/OR PROGRAM
REMARK 300 GENERATED ASSEMBLY INFORMATION FOR THE STRUCTURE IN
REMARK 300 THIS ENTRY. THE REMARK MAY ALSO  PROVIDE INFORMATION ON
REMARK 300 BURIED SURFACE AREA.
REMARK 350
REMARK 350 COORDINATES FOR A COMPLETE MULTIMER REPRESENTING THE KNOWN
REMARK 350 BIOLOGICALLY SIGNIFICANT OLIGOMERIZATION STATE OF THE
REMARK 350 MOLECULE CAN BE GENERATED BY APPLYING BIOMT TRANSFORMATIONS
REMARK 350 GIVEN BELOW. BOTH NON-CRYSTALLOGRAPHIC AND
REMARK 350 CRYSTALLOGRAPHIC OPERATIONS ARE GIVEN.
REMARK 350
REMARK 350 BIOMOLECULE: 1
REMARK 350 SOFTWARE DETERMINED QUATERNARY STRUCTURE: MONOMERIC
REMARK 350 SOFTWARE USED: PISA
REMARK 350 SURFACE AREA OF THE MONOMER: 7745 ANGSTROM**2
REMARK 350 FREE ENERGY OF FOLDING: -155.4 KCAL/MOL
REMARK 350 APPLY THE FOLLOWING TO CHAINS: A,W
REMARK 350   BIOMT1   1  1.000000  0.000000  0.000000        0.00000
REMARK 350   BIOMT2   1  0.000000  1.000000  0.000000        0.00000
REMARK 350   BIOMT3   1  0.000000  0.000000  1.000000        0.00000
REMARK 350
REMARK 350 BIOMOLECULE: 2
REMARK 350 SOFTWARE DETERMINED QUATERNARY STRUCTURE: MONOMERIC
REMARK 350 SOFTWARE USED: PISA
REMARK 350 SURFACE AREA OF THE MONOMER: 8033 ANGSTROM**2
REMARK 350 FREE ENERGY OF FOLDING: -158.2 KCAL/MOL
REMARK 350 APPLY THE FOLLOWING TO CHAINS: B,W
REMARK 350   BIOMT1   1  1.000000  0.000000  0.000000        0.00000
REMARK 350   BIOMT2   1  0.000000  1.000000  0.000000        0.00000
REMARK 350   BIOMT3   1  0.000000  0.000000  1.000000        0.00000
CRYST1   88.763   88.763   39.308  90.00  90.00  90.00 P 43                     


$$$$
SARS2_Mac1A-A0050
  PyMOL3.0          3D                             0

 19 21  0  0  0  0  0  0  0  0999 V2000
   -1.1900   15.5390   -2.7530 N   0  0  0  0  0  0  0  0  0  0  0  0
    1.1160   11.8570   -5.6670 C   0  0  0  0  0  0  0  0  0  0  0  0
   -1.2590   10.8770   -5.0920 O   0  0  0  0  0  0  0  0  0  0  0  0
    2.2120   12.7130   -5.0310 C   0  0  0  0  0  0  0  0  0  0  0  0
   -0.0130   15.2360   -0.7600 N   0  0  0  0  0  0  0  0  0  0  0  0
    0.4400   11.0390   -3.2850 O   0  0  0  0  0  0  0  0  0  0  0  0
    1.7340   14.1090   -4.6670 C   0  0  0  0  0  0  0  0  0  0  0  0
   -1.1530   15.2530    1.3740 N   0  0  0  0  0  0  0  0  0  0  0  0
    0.5630   14.1040   -3.6850 C   0  0  0  0  0  0  0  0  0  0  0  0
   -3.5190   15.6590    1.2140 N   0  0  0  0  0  0  0  0  0  0  0  0
    0.0210   15.5040   -3.5730 C   0  0  0  0  0  0  0  0  0  0  0  0
   -4.4390   15.8790    0.2280 N   0  0  0  0  0  0  0  0  0  0  0  0
   -1.1780   15.4230   -1.4180 C   0  0  0  0  0  0  0  0  0  0  0  0
   -0.0750   15.1760    0.5800 C   0  0  0  0  0  0  0  0  0  0  0  0
   -2.2880   15.4800    0.6870 C   0  0  0  0  0  0  0  0  0  0  0  0
   -3.7770   15.8280   -0.9120 C   0  0  0  0  0  0  0  0  0  0  0  0
   -2.3980   15.5770   -0.7030 C   0  0  0  0  0  0  0  0  0  0  0  0
   -0.6280   13.2670   -4.2140 C   0  0  0  0  0  0  0  0  0  0  0  0
   -0.1650   11.5920   -4.4820 S   0  0  0  0  0  0  0  0  0  0  0  0
  1 13  1  0  0  0  0
  2  4  1  0  0  0  0
  6 19  2  0  0  0  0
  4  7  1  0  0  0  0
  8 14  4  0  0  0  0
  7  9  1  0  0  0  0
  9 11  1  0  0  0  0
 10 15  4  0  0  0  0
  1 11  1  0  0  0  0
 10 12  4  0  0  0  0
  5 13  4  0  0  0  0
 13 17  4  0  0  0  0
  5 14  4  0  0  0  0
  8 15  4  0  0  0  0
 12 16  4  0  0  0  0
 15 17  4  0  0  0  0
 16 17  4  0  0  0  0
  9 18  1  0  0  0  0
  2 19  1  0  0  0  0
  3 19  2  0  0  0  0
 18 19  1  0  0  0  0
M  END
>  <pdb_header>
REMARK --------------------- added by autoBUSTER ---------------------------------START
REMARK run at   = Mon Mar 27 16:32:00 BST 2023
REMARK     in   = /dls/labxchem/data/lb32627/lb32627-1/processing/analysis/model_building/SARS2_Mac1A-A0050
REMARK     user = ill13029
REMARK     cmd  = \
REMARK            /dls_sw/apps/GPhL/BUSTER/20221121/autoBUSTER/bin/linux64/refine \
REMARK            -p \
REMARK            /dls/labxchem/data/lb32627/lb32627-1/processing/analysis/model_building/SARS2_Mac1A-A0050/cootOut/Refine_11/in.pdb \
REMARK            -m \
REMARK            /dls/labxchem/data/lb32627/lb32627-1/processing/analysis/model_building/SARS2_Mac1A-A0050/SARS2_Mac1A-A0050.free.mtz \
REMARK            -l \
REMARK            /dls/labxchem/data/lb32627/lb32627-1/processing/analysis/model_building/SARS2_Mac1A-A0050/ASAP-0000051-001.cif \
REMARK            -autoncs -M ADP -d Refine_11
REMARK Files used:
REMARK   PDB              = Refine_11/pdbchk.pdb
REMARK   MTZ              = /dls/labxchem/data/lb32627/lb32627-1/processing/analysis/model_building/SARS2_Mac1A-A0050/SARS2_Mac1A-A0050.free.mtz
REMARK output written to subdirectory = Refine_11
REMARK best refinement for F,SIGF with R/Rfree 0.1941/0.2353
REMARK header records are copied from input PDB file (apart from REMARK 3!)
REMARK --------------------- added by autoBUSTER -----------------------------------END
REMARK --------------------- added by autoBUSTER -------------------------------
REMARK run at   = Wed Dec 14 16:55:05 GMT 2022                                  
REMARK     in   = /dls/labxchem/data/lb32627/lb32627-1/processing/analysis/model
REMARK     user = ejx48977                                                      
REMARK     cmd  = \                                                             
REMARK            /dls_sw/apps/GPhL/BUSTER/20220608/autoBUSTER/bin/linux64/refin
REMARK            -p \                                                          
REMARK            /dls/labxchem/data/lb32627/lb32627-1/processing/analysis/model
REMARK            -m \                                                          
REMARK            /dls/labxchem/data/lb32627/lb32627-1/processing/analysis/model
REMARK            -l \                                                          
REMARK            /dls/labxchem/data/lb32627/lb32627-1/processing/analysis/model
REMARK            -autoncs -M ADP -B user -Gelly gelly.dat -d Refine_9          
REMARK Files used:                                                              
REMARK   PDB              = Refine_9/pdbchk.pdb                                 
REMARK   MTZ              = /dls/labxchem/data/lb32627/lb32627-1/processing/anal
REMARK   Gelly commands       = /dls/labxchem/data/lb32627/lb32627-1/processing/
REMARK output written to subdirectory = Refine_9                                
REMARK best refinement for F,SIGF with R/Rfree 0.1940/0.2352                    
REMARK header records are copied from input PDB file (apart from REMARK 3!)     
REMARK --------------------- added by autoBUSTER -------------------------------
REMARK --------------------- added by autoBUSTER -------------------------------
REMARK run at   = Wed Dec  7 16:02:51 GMT 2022                                  
REMARK     in   = /dls/labxchem/data/lb32627/lb32627-1/processing/analysis/model
REMARK     user = ill13029                                                      
REMARK     cmd  = \                                                             
REMARK            /dls_sw/apps/GPhL/BUSTER/20220608/autoBUSTER/bin/linux64/refin
REMARK            -p \                                                          
REMARK            /dls/labxchem/data/lb32627/lb32627-1/processing/analysis/model
REMARK            -m \                                                          
REMARK            /dls/labxchem/data/lb32627/lb32627-1/processing/analysis/model
REMARK            -l \                                                          
REMARK            /dls/labxchem/data/lb32627/lb32627-1/processing/analysis/model
REMARK            -autoncs -M TLSbasic -d Refine_8                              
REMARK Files used:                                                              
REMARK   PDB              = Refine_8/pdbchk.pdb                                 
REMARK   MTZ              = /dls/labxchem/data/lb32627/lb32627-1/processing/anal
REMARK output written to subdirectory = Refine_8                                
REMARK best refinement for F,SIGF with R/Rfree 0.2108/0.2512                    
REMARK header records are copied from input PDB file (apart from REMARK 3!)     
REMARK --------------------- added by autoBUSTER -------------------------------
REMARK --------------------- added by autoBUSTER -------------------------------
REMARK run at   = Wed Dec  7 10:57:29 GMT 2022                                  
REMARK     in   = /dls/labxchem/data/lb32627/lb32627-1/processing/analysis/model
REMARK     user = ill13029                                                      
REMARK     cmd  = \                                                             
REMARK            /dls_sw/apps/GPhL/BUSTER/20220608/autoBUSTER/bin/linux64/refin
REMARK            -p \                                                          
REMARK            /dls/labxchem/data/lb32627/lb32627-1/processing/analysis/model
REMARK            -m \                                                          
REMARK            /dls/labxchem/data/lb32627/lb32627-1/processing/analysis/model
REMARK            -l \                                                          
REMARK            /dls/labxchem/data/lb32627/lb32627-1/processing/analysis/model
REMARK            -autoncs -M ADP -d Refine_7                                   
REMARK Files used:                                                              
REMARK   PDB              = Refine_7/pdbchk.pdb                                 
REMARK   MTZ              = /dls/labxchem/data/lb32627/lb32627-1/processing/anal
REMARK output written to subdirectory = Refine_7                                
REMARK best refinement for F,SIGF with R/Rfree 0.1948/0.2377                    
REMARK header records are copied from input PDB file (apart from REMARK 3!)     
REMARK --------------------- added by autoBUSTER -------------------------------
REMARK --------------------- added by autoBUSTER -------------------------------
REMARK run at   = Tue Nov 29 10:15:53 GMT 2022                                  
REMARK     in   = /dls/labxchem/data/lb32627/lb32627-1/processing/analysis/model
REMARK     user = ill13029                                                      
REMARK     cmd  = \                                                             
REMARK            /dls_sw/apps/GPhL/BUSTER/20220608/autoBUSTER/bin/linux64/refin
REMARK            -p \                                                          
REMARK            /dls/labxchem/data/lb32627/lb32627-1/processing/analysis/model
REMARK            -m \                                                          
REMARK            /dls/labxchem/data/lb32627/lb32627-1/processing/analysis/model
REMARK            -l \                                                          
REMARK            /dls/labxchem/data/lb32627/lb32627-1/processing/analysis/model
REMARK            -autoncs -M TLSbasic -d Refine_6                              
REMARK Files used:                                                              
REMARK   PDB              = Refine_6/pdbchk.pdb                                 
REMARK   MTZ              = /dls/labxchem/data/lb32627/lb32627-1/processing/anal
REMARK output written to subdirectory = Refine_6                                
REMARK best refinement for F,SIGF with R/Rfree 0.2138/0.2444                    
REMARK header records are copied from input PDB file (apart from REMARK 3!)     
REMARK --------------------- added by autoBUSTER -------------------------------
HEADER    ----                                    18-MAY-20                     
TITLE     ---                                                                   
COMPND    ---                                                                   
EXPDTA    X-RAY DIFFRACTION
REMARK   2                                                            
REMARK   2 RESOLUTION.    1.16 ANGSTROMS.
REMARK   3
REMARK   3 REFINEMENT.
REMARK   3   PROGRAM     : BUSTER 2.10.4 (21-NOV-2022)
REMARK   3   AUTHORS     : BRICOGNE,BLANC,BRANDL,FLENSBURG,KELLER,
REMARK   3               : PACIOREK,ROVERSI,SHARFF,SMART,VONRHEIN,WOMACK;
REMARK   3               : MATTHEWS,TEN EYCK,TRONRUD
REMARK   3
REMARK   3  DATA USED IN REFINEMENT.
REMARK   3   RESOLUTION RANGE HIGH (ANGSTROMS) : 1.155
REMARK   3   RESOLUTION RANGE LOW  (ANGSTROMS) : 62.69
REMARK   3   DATA CUTOFF            (SIGMA(F)) : 0.000
REMARK   3   COMPLETENESS FOR RANGE        (%) : 92.6
REMARK   3   NUMBER OF REFLECTIONS             : 99494
REMARK   3
REMARK   3  FIT TO DATA USED IN REFINEMENT.
REMARK   3   CROSS-VALIDATION METHOD          : THROUGHOUT
REMARK   3   FREE R VALUE TEST SET SELECTION  : RANDOM
REMARK   3   R VALUE     (WORKING + TEST SET) : 0.1961
REMARK   3   R VALUE            (WORKING SET) : 0.1941
REMARK   3   FREE R VALUE                     : 0.2353
REMARK   3   FREE R VALUE TEST SET SIZE   (%) : 5.010
REMARK   3   FREE R VALUE TEST SET COUNT      : 4981
REMARK   3   ESTIMATED ERROR OF FREE R VALUE  : NULL
REMARK   3
REMARK   3  FIT IN THE HIGHEST RESOLUTION BIN.
REMARK   3   TOTAL NUMBER OF BINS USED           : 51
REMARK   3   BIN RESOLUTION RANGE HIGH       (A) : 1.16
REMARK   3   BIN RESOLUTION RANGE LOW        (A) : 1.18
REMARK   3   BIN COMPLETENESS (WORKING+TEST) (%) : 26.09
REMARK   3   REFLECTIONS IN BIN   (WORKING+TEST) : 1990
REMARK   3   BIN R VALUE          (WORKING+TEST) : 0.4386
REMARK   3   REFLECTIONS IN BIN    (WORKING SET) : 1886
REMARK   3   BIN R VALUE           (WORKING SET) : 0.4374
REMARK   3   BIN FREE R VALUE                    : 0.4617
REMARK   3   BIN FREE R VALUE TEST SET SIZE  (%) : 5.23
REMARK   3   BIN FREE R VALUE TEST SET COUNT     : 104
REMARK   3   ESTIMATED ERROR OF BIN FREE R VALUE : NULL
REMARK   3
REMARK   3  NUMBER OF NON-HYDROGEN ATOMS USED IN REFINEMENT.
REMARK   3   PROTEIN ATOMS            : 2518
REMARK   3   NUCLEIC ACID ATOMS       : 0
REMARK   3   HETEROGEN ATOMS          : 23
REMARK   3   SOLVENT ATOMS            : 435
REMARK   3
REMARK   3  B VALUES.
REMARK   3   FROM WILSON PLOT           (A**2) : 13.99
REMARK   3   MEAN B VALUE      (OVERALL, A**2) : 21.59
REMARK   3   OVERALL ANISOTROPIC B VALUE.
REMARK   3    B11 (A**2) : 3.11510
REMARK   3    B22 (A**2) : 3.11510
REMARK   3    B33 (A**2) : -6.23010
REMARK   3    B12 (A**2) : 0.00000
REMARK   3    B13 (A**2) : 0.00000
REMARK   3    B23 (A**2) : 0.00000
REMARK   3
REMARK   3  ESTIMATED COORDINATE ERROR.
REMARK   3   ESD FROM LUZZATI PLOT                    (A) : 0.19
REMARK   3   DPI (BLOW EQ-10) BASED ON R VALUE        (A) : 0.045
REMARK   3   DPI (BLOW EQ-9) BASED ON FREE R VALUE    (A) : 0.051
REMARK   3   DPI (CRUICKSHANK) BASED ON R VALUE       (A) : 0.043
REMARK   3   DPI (CRUICKSHANK) BASED ON FREE R VALUE  (A) : 0.048
REMARK   3
REMARK   3   REFERENCES: BLOW, D. (2002) ACTA CRYST D58, 792-797
REMARK   3               CRUICKSHANK, D.W.J. (1999) ACTA CRYST D55, 583-601
REMARK   3
REMARK   3  CORRELATION COEFFICIENTS.
REMARK   3   CORRELATION COEFFICIENT FO-FC      : 0.926
REMARK   3   CORRELATION COEFFICIENT FO-FC FREE : 0.896
REMARK   3
REMARK   3  X-RAY WEIGHT : 6.14
REMARK   3
REMARK   3  GEOMETRY FUNCTION.                                                  
REMARK   3   RESTRAINT LIBRARIES.                                               
REMARK   3    NUMBER OF LIBRARIES USED :   9                                    
REMARK   3    LIBRARY  1 : protgeo_eh99.dat (V1.6.4.20) 20220523  STANDARD      
REMARK   3                 AMINO ACID DICTIONARY. BONDS AND ANGLES FROM         
REMARK   3                 ENGH AND HUBER EH99. OTHER VALUES BASED ON           
REMARK   3                 PREVIOUS TNT OR TAKEN FROM CCP4. INCLUDES            
REMARK   3                 HYDROGEN ATOMS.                                      
REMARK   3    LIBRARY  2 : exoticaa.dat (V1.3.4.16) 20220523  COLLECTION        
REMARK   3                 OF NON-STANDARD AMINO ACIDS, MAINLY EH91             
REMARK   3                 WITHOUT IDEAL DISTANCE INFO                          
REMARK   3    LIBRARY  3 : nuclgeo.dat (V1.13.4.9) 20221011                     
REMARK   3    LIBRARY  4 : bcorrel.dat (V1.15.10.2) 20190616                    
REMARK   3    LIBRARY  5 : contact.dat (V1.15.12.10) 20191121                   
REMARK   3    LIBRARY  6 : idealdist_contact.dat (V1.3.4.13) 20220125           
REMARK   3                 IDEAL-DISTANCE CONTACT TERM DATA AS USED IN          
REMARK   3                 PROLSQ. VALUES USED HERE ARE BASED ON DATA           
REMARK   3                 HARVESTING OF PDB AS OF 20190109.                    
REMARK   3    LIBRARY  7 : restraints for LIG (unknown) from cif                
REMARK   3                 dictionary ASAP-0000051-001.cif; generated by        
REMARK   3                 GRADE 1.2.21 (Feb 03 2022) from SMILES               
REMARK   3                 O=S1(=O)CCCC(CNc2ncnc3[nH]ncc23)C1 using MOGUL       
REMARK   3                 1.8.5(274361), CSD as541be, with quantum             
REMARK   3                 mechanics RM1                                        
REMARK   3    LIBRARY  8 : restraints for DMS (DIMETHYL SULFOXIDE) from         
REMARK   3                 cif dictionary DMS.cif; generated by grade2          
REMARK   3                 version 1.1.0a7 from                                 
REMARK   3                 PDB_chemical_components_definition_file              
REMARK   3                 ftp://ftp.ebi.ac.uk/pub/databases/msd/pdbechem_v     
REMARK   3                 2/D/DMS/DMS.cif using RDKit 2021.03.4                
REMARK   3                 ((DatabaseID PDB-DMS))                               
REMARK   3    LIBRARY  9 : assume.dat (V1.9.4.3) 20221011                       
REMARK   3                                                                      
REMARK   3   NUMBER OF GEOMETRIC FUNCTION TERMS DEFINED : 15                    
REMARK   3   TERM                          COUNT    WEIGHT   FUNCTION.          
REMARK   3    BOND LENGTHS              :   2620 ;   2.00 ;  HARMONIC           
REMARK   3    BOND ANGLES               :   3568 ;   2.00 ;  HARMONIC           
REMARK   3    TORSION ANGLES            :    894 ;   2.00 ;  SINUSOIDAL         
REMARK   3    TRIGONAL CARBON PLANES    :   NULL ;   NULL ;  NULL               
REMARK   3    GENERAL PLANES            :    463 ;   5.00 ;  HARMONIC           
REMARK   3    ISOTROPIC THERMAL FACTORS :   2596 ;  10.00 ;  HARMONIC           
REMARK   3    BAD NON-BONDED CONTACTS   :   NULL ;   NULL ;  NULL               
REMARK   3    IMPROPER TORSIONS         :   NULL ;   NULL ;  NULL               
REMARK   3    PSEUDOROTATION ANGLES     :   NULL ;   NULL ;  NULL               
REMARK   3    CHIRAL IMPROPER TORSION   :    336 ;   5.00 ;  SEMIHARMONIC       
REMARK   3    SUM OF OCCUPANCIES        :   NULL ;   NULL ;  NULL               
REMARK   3    UTILITY DISTANCES         :   NULL ;   NULL ;  NULL               
REMARK   3    UTILITY ANGLES            :   NULL ;   NULL ;  NULL               
REMARK   3    UTILITY TORSION           :   NULL ;   NULL ;  NULL               
REMARK   3    IDEAL-DIST CONTACT TERM   :   2998 ;   4.00 ;  SEMIHARMONIC       
REMARK   3                                                                      
REMARK   3   RMS DEVIATIONS FROM IDEAL VALUES.                                  
REMARK   3   BOND LENGTHS                       (A) : 0.014                     
REMARK   3   BOND ANGLES                  (DEGREES) : 1.25                      
REMARK   3   PEPTIDE OMEGA TORSION ANGLES (DEGREES) : 4.98                      
REMARK   3   OTHER TORSION ANGLES         (DEGREES) : 14.63                     
REMARK   3                                                                      
REMARK   3   SIMILARITY.                                                        
REMARK   3    NCS.                                                              
REMARK   3     NCS METHOD: RESTRAINT LSSR (-AUTONCS)                            
REMARK   3    TARGET RESTRAINTS.                                                
REMARK   3     TARGET REPRESENTATION : NONE                                     
REMARK   3     TARGET STRUCTURE : NULL                                          
REMARK   3                                                                      
REMARK   3  TLS DETAILS.                                                        
REMARK   3   NUMBER OF TLS GROUPS  :            0                               
REMARK   3                                                                      
REMARK   3  REFINEMENT NOTES.                                                   
REMARK   3   NUMBER OF REFINEMENT NOTES :   1                                   
REMARK   3   NOTE   1 : IDEAL-DIST CONTACT TERM CONTACT SETUP. ALL ATOMS        
REMARK   3               HAVE CCP4 ATOM TYPE FROM LIBRARY                       
REMARK   3
REMARK   3  OTHER REFINEMENT REMARKS: NULL
REMARK   3
REMARK 290                                                            
REMARK 290 CRYSTALLOGRAPHIC SYMMETRY                                  
REMARK 290 SYMMETRY OPERATORS FOR SPACE GROUP: P 43                   
REMARK 290                                                            
REMARK 290      SYMOP   SYMMETRY                                      
REMARK 290     NNNMMM   OPERATOR                                      
REMARK 290       1555   X,Y,Z                                         
REMARK 290       2555   -X,-Y,1/2+Z                                   
REMARK 290       3555   -Y,X,3/4+Z                                    
REMARK 290       4555   Y,-X,1/4+Z                                    
REMARK 290                                                            
REMARK 290     WHERE NNN -> OPERATOR NUMBER                           
REMARK 290           MMM -> TRANSLATION VECTOR                        
REMARK 290                                                            
REMARK 290 CRYSTALLOGRAPHIC SYMMETRY TRANSFORMATIONS                  
REMARK 290 THE FOLLOWING TRANSFORMATIONS OPERATE ON THE ATOM/HETATM   
REMARK 290 RECORDS IN THIS ENTRY TO PRODUCE CRYSTALLOGRAPHICALLY      
REMARK 290 RELATED MOLECULES.                                         
REMARK 290   SMTRY1   1  1.000000  0.000000  0.000000        0.00000
REMARK 290   SMTRY2   1  0.000000  1.000000  0.000000        0.00000
REMARK 290   SMTRY3   1  0.000000  0.000000  1.000000        0.00000
REMARK 290   SMTRY1   2 -1.000000  0.000000  0.000000        0.00000
REMARK 290   SMTRY2   2  0.000000 -1.000000  0.000000        0.00000
REMARK 290   SMTRY3   2  0.000000  0.000000  1.000000       19.68650
REMARK 290   SMTRY1   3  0.000000 -1.000000  0.000000        0.00000
REMARK 290   SMTRY2   3  1.000000  0.000000  0.000000        0.00000
REMARK 290   SMTRY3   3  0.000000  0.000000  1.000000       29.52975
REMARK 290   SMTRY1   4  0.000000  1.000000  0.000000        0.00000
REMARK 290   SMTRY2   4 -1.000000  0.000000  0.000000        0.00000
REMARK 290   SMTRY3   4  0.000000  0.000000  1.000000        9.84325
REMARK 290                                                            
REMARK 290 REMARK: NULL                                               
CRYST1   88.656   88.656   39.373  90.00  90.00  90.00 P 43           


$$$$
SARS2_Mac1A-A0060
  PyMOL3.0          3D                             0

 19 21  0  0  0  0  0  0  0  0999 V2000
   -7.3340   14.9980    3.2030 N   0  0  0  0  0  0  0  0  0  0  0  0
   -8.5280   15.5580    3.5100 C   0  0  0  0  0  0  0  0  0  0  0  0
   -9.2810   16.0850    2.6940 O   0  0  0  0  0  0  0  0  0  0  0  0
   -9.2080   18.3030    4.8600 Cl  0  0  0  0  0  0  0  0  0  0  0  0
   -6.6540   15.0310    1.9710 C   0  0  0  0  0  0  0  0  0  0  0  0
   -6.7180   14.7860   -0.4630 N   0  0  0  0  0  0  0  0  0  0  0  0
   -7.3050   14.7960    0.7440 C   0  0  0  0  0  0  0  0  0  0  0  0
   -4.5620   15.0490   -1.4770 N   0  0  0  0  0  0  0  0  0  0  0  0
   -5.4070   15.0400   -0.4260 C   0  0  0  0  0  0  0  0  0  0  0  0
   -3.2840   15.3370   -1.0820 N   0  0  0  0  0  0  0  0  0  0  0  0
   -3.3300   15.5080    0.2260 C   0  0  0  0  0  0  0  0  0  0  0  0
   -9.2490   15.5630    7.7390 N   0  0  0  0  0  0  0  0  0  0  0  0
   -4.6440   15.3240    0.7200 C   0  0  0  0  0  0  0  0  0  0  0  0
   -5.2820   15.3040    1.9500 C   0  0  0  0  0  0  0  0  0  0  0  0
   -8.8380   15.5900    4.9710 C   0  0  0  0  0  0  0  0  0  0  0  0
   -8.8300   14.3950    5.6870 C   0  0  0  0  0  0  0  0  0  0  0  0
   -9.0380   14.4370    7.0510 C   0  0  0  0  0  0  0  0  0  0  0  0
   -9.2590   16.7080    7.0470 C   0  0  0  0  0  0  0  0  0  0  0  0
   -9.0750   16.7620    5.6740 C   0  0  0  0  0  0  0  0  0  0  0  0
  1  5  1  0  0  0  0
  1  2  1  0  0  0  0
  2  3  2  0  0  0  0
  4 19  1  0  0  0  0
  5  7  4  0  0  0  0
  5 14  4  0  0  0  0
  6  7  4  0  0  0  0
  6  9  4  0  0  0  0
  8  9  4  0  0  0  0
  8 10  4  0  0  0  0
 10 11  4  0  0  0  0
 12 17  4  0  0  0  0
  9 13  4  0  0  0  0
 11 13  4  0  0  0  0
 13 14  4  0  0  0  0
  2 15  1  0  0  0  0
 15 16  4  0  0  0  0
 16 17  4  0  0  0  0
 12 18  4  0  0  0  0
 15 19  4  0  0  0  0
 18 19  4  0  0  0  0
M  END
>  <pdb_header>
HEADER    ----                                    18-MAY-20                     
TITLE     ---                                                                   
EXPDTA    X-RAY DIFFRACTION                                                     
REMARK --------------------- added by autoBUSTER ---------------------------------START
REMARK run at   = Mon Mar 27 16:40:28 BST 2023
REMARK     in   = /dls/labxchem/data/lb32627/lb32627-1/processing/analysis/model_building/SARS2_Mac1A-A0060
REMARK     user = ill13029
REMARK     cmd  = \
REMARK            /dls_sw/apps/GPhL/BUSTER/20221121/autoBUSTER/bin/linux64/refine \
REMARK            -p \
REMARK            /dls/labxchem/data/lb32627/lb32627-1/processing/analysis/model_building/SARS2_Mac1A-A0060/cootOut/Refi
REMARK            -m \
REMARK            /dls/labxchem/data/lb32627/lb32627-1/processing/analysis/model_building/SARS2_Mac1A-A0060/SARS2_Mac1A-
REMARK            -l \
REMARK            /dls/labxchem/data/lb32627/lb32627-1/processing/analysis/model_building/SARS2_Mac1A-A0060/ASAP-0000061
REMARK            -autoncs -M ADP -d Refine_9
REMARK Files used:
REMARK   PDB              = Refine_9/pdbchk.pdb
REMARK   MTZ              = /dls/labxchem/data/lb32627/lb32627-1/processing/analysis/model_building/SARS2_Mac1A-A0060/SA
REMARK output written to subdirectory = Refine_9
REMARK best refinement for F,SIGF with R/Rfree 0.1757/0.2076
REMARK header records are copied from input PDB file (apart from REMARK 3!)
REMARK --------------------- added by autoBUSTER -----------------------------------END
REMARK --------------------- added by autoBUSTER -------------------------------
REMARK run at   = Wed Dec  7 16:20:27 GMT 2022                                  
REMARK     in   = /dls/labxchem/data/lb32627/lb32627-1/processing/analysis/model
REMARK     user = ill13029                                                      
REMARK     cmd  = \                                                             
REMARK            /dls_sw/apps/GPhL/BUSTER/20220608/autoBUSTER/bin/linux64/refin
REMARK            -p \                                                          
REMARK            /dls/labxchem/data/lb32627/lb32627-1/processing/analysis/model
REMARK            -m \                                                          
REMARK            /dls/labxchem/data/lb32627/lb32627-1/processing/analysis/model
REMARK            -l \                                                          
REMARK            /dls/labxchem/data/lb32627/lb32627-1/processing/analysis/model
REMARK            -autoncs -M ADP -d Refine_7                                   
REMARK Files used:                                                              
REMARK   PDB              = Refine_7/pdbchk.pdb                                 
REMARK   MTZ              = /dls/labxchem/data/lb32627/lb32627-1/processing/anal
REMARK output written to subdirectory = Refine_7                                
REMARK best refinement for F,SIGF with R/Rfree 0.1757/0.2076                    
REMARK header records are copied from input PDB file (apart from REMARK 3!)     
REMARK --------------------- added by autoBUSTER -------------------------------
REMARK --------------------- added by autoBUSTER -------------------------------
REMARK run at   = Wed Dec  7 11:05:41 GMT 2022                                  
REMARK     in   = /dls/labxchem/data/lb32627/lb32627-1/processing/analysis/model
REMARK     user = ill13029                                                      
REMARK     cmd  = \                                                             
REMARK            /dls_sw/apps/GPhL/BUSTER/20220608/autoBUSTER/bin/linux64/refin
REMARK            -p \                                                          
REMARK            /dls/labxchem/data/lb32627/lb32627-1/processing/analysis/model
REMARK            -m \                                                          
REMARK            /dls/labxchem/data/lb32627/lb32627-1/processing/analysis/model
REMARK            -l \                                                          
REMARK            /dls/labxchem/data/lb32627/lb32627-1/processing/analysis/model
REMARK            -autoncs -M ADP -d Refine_6                                   
REMARK Files used:                                                              
REMARK   PDB              = Refine_6/pdbchk.pdb                                 
REMARK   MTZ              = /dls/labxchem/data/lb32627/lb32627-1/processing/anal
REMARK output written to subdirectory = Refine_6                                
REMARK best refinement for F,SIGF with R/Rfree 0.1753/0.2079                    
REMARK header records are copied from input PDB file (apart from REMARK 3!)     
REMARK --------------------- added by autoBUSTER -------------------------------
REMARK --------------------- added by autoBUSTER -------------------------------
REMARK run at   = Tue Nov 29 13:56:15 GMT 2022                                  
REMARK     in   = /dls/labxchem/data/lb32627/lb32627-1/processing/analysis/model
REMARK     user = ill13029                                                      
REMARK     cmd  = \                                                             
REMARK            /dls_sw/apps/GPhL/BUSTER/20220608/autoBUSTER/bin/linux64/refin
REMARK            -p \                                                          
REMARK            /dls/labxchem/data/lb32627/lb32627-1/processing/analysis/model
REMARK            -m \                                                          
REMARK            /dls/labxchem/data/lb32627/lb32627-1/processing/analysis/model
REMARK            -l \                                                          
REMARK            /dls/labxchem/data/lb32627/lb32627-1/processing/analysis/model
REMARK            -autoncs -M TLSbasic -d Refine_5                              
REMARK Files used:                                                              
REMARK   PDB              = Refine_5/pdbchk.pdb                                 
REMARK   MTZ              = /dls/labxchem/data/lb32627/lb32627-1/processing/anal
REMARK output written to subdirectory = Refine_5                                
REMARK best refinement for F,SIGF with R/Rfree 0.2029/0.2332                    
REMARK header records are copied from input PDB file (apart from REMARK 3!)     
REMARK --------------------- added by autoBUSTER -------------------------------
REMARK   2                                                            
REMARK   2 RESOLUTION.    1.17 ANGSTROMS.
REMARK   3
REMARK   3 REFINEMENT.
REMARK   3   PROGRAM     : BUSTER 2.10.4 (21-NOV-2022)
REMARK   3   AUTHORS     : BRICOGNE,BLANC,BRANDL,FLENSBURG,KELLER,
REMARK   3               : PACIOREK,ROVERSI,SHARFF,SMART,VONRHEIN,WOMACK;
REMARK   3               : MATTHEWS,TEN EYCK,TRONRUD
REMARK   3
REMARK   3  DATA USED IN REFINEMENT.
REMARK   3   RESOLUTION RANGE HIGH (ANGSTROMS) : 1.171
REMARK   3   RESOLUTION RANGE LOW  (ANGSTROMS) : 88.69
REMARK   3   DATA CUTOFF            (SIGMA(F)) : 0.000
REMARK   3   COMPLETENESS FOR RANGE        (%) : 98.6
REMARK   3   NUMBER OF REFLECTIONS             : 101922
REMARK   3
REMARK   3  FIT TO DATA USED IN REFINEMENT.
REMARK   3   CROSS-VALIDATION METHOD          : THROUGHOUT
REMARK   3   FREE R VALUE TEST SET SELECTION  : RANDOM
REMARK   3   R VALUE     (WORKING + TEST SET) : 0.1773
REMARK   3   R VALUE            (WORKING SET) : 0.1757
REMARK   3   FREE R VALUE                     : 0.2076
REMARK   3   FREE R VALUE TEST SET SIZE   (%) : 5.000
REMARK   3   FREE R VALUE TEST SET COUNT      : 5097
REMARK   3   ESTIMATED ERROR OF FREE R VALUE  : NULL
REMARK   3
REMARK   3  FIT IN THE HIGHEST RESOLUTION BIN.
REMARK   3   TOTAL NUMBER OF BINS USED           : 51
REMARK   3   BIN RESOLUTION RANGE HIGH       (A) : 1.17
REMARK   3   BIN RESOLUTION RANGE LOW        (A) : 1.18
REMARK   3   BIN COMPLETENESS (WORKING+TEST) (%) : 74.22
REMARK   3   REFLECTIONS IN BIN   (WORKING+TEST) : 2039
REMARK   3   BIN R VALUE          (WORKING+TEST) : 0.4441
REMARK   3   REFLECTIONS IN BIN    (WORKING SET) : 1944
REMARK   3   BIN R VALUE           (WORKING SET) : 0.4425
REMARK   3   BIN FREE R VALUE                    : 0.4770
REMARK   3   BIN FREE R VALUE TEST SET SIZE  (%) : 4.66
REMARK   3   BIN FREE R VALUE TEST SET COUNT     : 95
REMARK   3   ESTIMATED ERROR OF BIN FREE R VALUE : NULL
REMARK   3
REMARK   3  NUMBER OF NON-HYDROGEN ATOMS USED IN REFINEMENT.
REMARK   3   PROTEIN ATOMS            : 2527
REMARK   3   NUCLEIC ACID ATOMS       : 0
REMARK   3   HETEROGEN ATOMS          : 19
REMARK   3   SOLVENT ATOMS            : 427
REMARK   3
REMARK   3  B VALUES.
REMARK   3   FROM WILSON PLOT           (A**2) : 13.52
REMARK   3   MEAN B VALUE      (OVERALL, A**2) : 21.77
REMARK   3   OVERALL ANISOTROPIC B VALUE.
REMARK   3    B11 (A**2) : 3.54740
REMARK   3    B22 (A**2) : 3.54740
REMARK   3    B33 (A**2) : -7.09480
REMARK   3    B12 (A**2) : 0.00000
REMARK   3    B13 (A**2) : 0.00000
REMARK   3    B23 (A**2) : 0.00000
REMARK   3
REMARK   3  ESTIMATED COORDINATE ERROR.
REMARK   3   ESD FROM LUZZATI PLOT                    (A) : 0.16
REMARK   3   DPI (BLOW EQ-10) BASED ON R VALUE        (A) : 0.040
REMARK   3   DPI (BLOW EQ-9) BASED ON FREE R VALUE    (A) : 0.044
REMARK   3   DPI (CRUICKSHANK) BASED ON R VALUE       (A) : 0.038
REMARK   3   DPI (CRUICKSHANK) BASED ON FREE R VALUE  (A) : 0.042
REMARK   3
REMARK   3   REFERENCES: BLOW, D. (2002) ACTA CRYST D58, 792-797
REMARK   3               CRUICKSHANK, D.W.J. (1999) ACTA CRYST D55, 583-601
REMARK   3
REMARK   3  CORRELATION COEFFICIENTS.
REMARK   3   CORRELATION COEFFICIENT FO-FC      : 0.953
REMARK   3   CORRELATION COEFFICIENT FO-FC FREE : 0.945
REMARK   3
REMARK   3  X-RAY WEIGHT : 4.79
REMARK   3
REMARK   3  GEOMETRY FUNCTION.                                                  
REMARK   3   RESTRAINT LIBRARIES.                                               
REMARK   3    NUMBER OF LIBRARIES USED :   8                                    
REMARK   3    LIBRARY  1 : protgeo_eh99.dat (V1.6.4.20) 20220523  STANDARD      
REMARK   3                 AMINO ACID DICTIONARY. BONDS AND ANGLES FROM         
REMARK   3                 ENGH AND HUBER EH99. OTHER VALUES BASED ON           
REMARK   3                 PREVIOUS TNT OR TAKEN FROM CCP4. INCLUDES            
REMARK   3                 HYDROGEN ATOMS.                                      
REMARK   3    LIBRARY  2 : exoticaa.dat (V1.3.4.16) 20220523  COLLECTION        
REMARK   3                 OF NON-STANDARD AMINO ACIDS, MAINLY EH91             
REMARK   3                 WITHOUT IDEAL DISTANCE INFO                          
REMARK   3    LIBRARY  3 : nuclgeo.dat (V1.13.4.9) 20221011                     
REMARK   3    LIBRARY  4 : bcorrel.dat (V1.15.10.2) 20190616                    
REMARK   3    LIBRARY  5 : contact.dat (V1.15.12.10) 20191121                   
REMARK   3    LIBRARY  6 : idealdist_contact.dat (V1.3.4.13) 20220125           
REMARK   3                 IDEAL-DISTANCE CONTACT TERM DATA AS USED IN          
REMARK   3                 PROLSQ. VALUES USED HERE ARE BASED ON DATA           
REMARK   3                 HARVESTING OF PDB AS OF 20190109.                    
REMARK   3    LIBRARY  7 : restraints for LIG (unknown) from cif                
REMARK   3                 dictionary ASAP-0000061-001.cif; generated by        
REMARK   3                 GRADE 1.2.21 (Feb 03 2022) from SMILES               
REMARK   3                 O=C(Nc1cnc2[nH]ncc2c1)c1ccncc1Cl using MOGUL         
REMARK   3                 1.8.5(274361), CSD as541be, with quantum             
REMARK   3                 mechanics RM1                                        
REMARK   3    LIBRARY  8 : assume.dat (V1.9.4.3) 20221011                       
REMARK   3                                                                      
REMARK   3   NUMBER OF GEOMETRIC FUNCTION TERMS DEFINED : 15                    
REMARK   3   TERM                          COUNT    WEIGHT   FUNCTION.          
REMARK   3    BOND LENGTHS              :   2626 ;   2.00 ;  HARMONIC           
REMARK   3    BOND ANGLES               :   3579 ;   2.00 ;  HARMONIC           
REMARK   3    TORSION ANGLES            :    895 ;   2.00 ;  SINUSOIDAL         
REMARK   3    TRIGONAL CARBON PLANES    :   NULL ;   NULL ;  NULL               
REMARK   3    GENERAL PLANES            :    477 ;   5.00 ;  HARMONIC           
REMARK   3    ISOTROPIC THERMAL FACTORS :   2605 ;  10.00 ;  HARMONIC           
REMARK   3    BAD NON-BONDED CONTACTS   :   NULL ;   NULL ;  NULL               
REMARK   3    IMPROPER TORSIONS         :   NULL ;   NULL ;  NULL               
REMARK   3    PSEUDOROTATION ANGLES     :   NULL ;   NULL ;  NULL               
REMARK   3    CHIRAL IMPROPER TORSION   :    338 ;   5.00 ;  SEMIHARMONIC       
REMARK   3    SUM OF OCCUPANCIES        :   NULL ;   NULL ;  NULL               
REMARK   3    UTILITY DISTANCES         :   NULL ;   NULL ;  NULL               
REMARK   3    UTILITY ANGLES            :   NULL ;   NULL ;  NULL               
REMARK   3    UTILITY TORSION           :   NULL ;   NULL ;  NULL               
REMARK   3    IDEAL-DIST CONTACT TERM   :   2905 ;   4.00 ;  SEMIHARMONIC       
REMARK   3                                                                      
REMARK   3   RMS DEVIATIONS FROM IDEAL VALUES.                                  
REMARK   3   BOND LENGTHS                       (A) : 0.014                     
REMARK   3   BOND ANGLES                  (DEGREES) : 1.27                      
REMARK   3   PEPTIDE OMEGA TORSION ANGLES (DEGREES) : 5.03                      
REMARK   3   OTHER TORSION ANGLES         (DEGREES) : 14.59                     
REMARK   3                                                                      
REMARK   3   SIMILARITY.                                                        
REMARK   3    NCS.                                                              
REMARK   3     NCS METHOD: RESTRAINT LSSR (-AUTONCS)                            
REMARK   3    TARGET RESTRAINTS.                                                
REMARK   3     TARGET REPRESENTATION : NONE                                     
REMARK   3     TARGET STRUCTURE : NULL                                          
REMARK   3                                                                      
REMARK   3  TLS DETAILS.                                                        
REMARK   3   NUMBER OF TLS GROUPS  :            0                               
REMARK   3                                                                      
REMARK   3  REFINEMENT NOTES.                                                   
REMARK   3   NUMBER OF REFINEMENT NOTES :   1                                   
REMARK   3   NOTE   1 : IDEAL-DIST CONTACT TERM CONTACT SETUP. ALL ATOMS        
REMARK   3               HAVE CCP4 ATOM TYPE FROM LIBRARY                       
REMARK   3
REMARK   3  OTHER REFINEMENT REMARKS: NULL
REMARK   3
REMARK 290                                                            
REMARK 290 CRYSTALLOGRAPHIC SYMMETRY                                  
REMARK 290 SYMMETRY OPERATORS FOR SPACE GROUP: P 43                   
REMARK 290                                                            
REMARK 290      SYMOP   SYMMETRY                                      
REMARK 290     NNNMMM   OPERATOR                                      
REMARK 290       1555   X,Y,Z                                         
REMARK 290       2555   -X,-Y,1/2+Z                                   
REMARK 290       3555   -Y,X,3/4+Z                                    
REMARK 290       4555   Y,-X,1/4+Z                                    
REMARK 290                                                            
REMARK 290     WHERE NNN -> OPERATOR NUMBER                           
REMARK 290           MMM -> TRANSLATION VECTOR                        
REMARK 290                                                            
REMARK 290 CRYSTALLOGRAPHIC SYMMETRY TRANSFORMATIONS                  
REMARK 290 THE FOLLOWING TRANSFORMATIONS OPERATE ON THE ATOM/HETATM   
REMARK 290 RECORDS IN THIS ENTRY TO PRODUCE CRYSTALLOGRAPHICALLY      
REMARK 290 RELATED MOLECULES.                                         
REMARK 290   SMTRY1   1  1.000000  0.000000  0.000000        0.00000
REMARK 290   SMTRY2   1  0.000000  1.000000  0.000000        0.00000
REMARK 290   SMTRY3   1  0.000000  0.000000  1.000000        0.00000
REMARK 290   SMTRY1   2 -1.000000  0.000000  0.000000        0.00000
REMARK 290   SMTRY2   2  0.000000 -1.000000  0.000000        0.00000
REMARK 290   SMTRY3   2  0.000000  0.000000  1.000000       19.70350
REMARK 290   SMTRY1   3  0.000000 -1.000000  0.000000        0.00000
REMARK 290   SMTRY2   3  1.000000  0.000000  0.000000        0.00000
REMARK 290   SMTRY3   3  0.000000  0.000000  1.000000       29.55525
REMARK 290   SMTRY1   4  0.000000  1.000000  0.000000        0.00000
REMARK 290   SMTRY2   4 -1.000000  0.000000  0.000000        0.00000
REMARK 290   SMTRY3   4  0.000000  0.000000  1.000000        9.85175
REMARK 290                                                            
REMARK 290 REMARK: NULL                                               
REMARK 300
REMARK 300 BIOMOLECULE: 1, 2
REMARK 300 SEE REMARK 350 FOR THE AUTHOR PROVIDED AND/OR PROGRAM
REMARK 300 GENERATED ASSEMBLY INFORMATION FOR THE STRUCTURE IN
REMARK 300 THIS ENTRY. THE REMARK MAY ALSO  PROVIDE INFORMATION ON
REMARK 300 BURIED SURFACE AREA.
REMARK 350
REMARK 350 COORDINATES FOR A COMPLETE MULTIMER REPRESENTING THE KNOWN
REMARK 350 BIOLOGICALLY SIGNIFICANT OLIGOMERIZATION STATE OF THE
REMARK 350 MOLECULE CAN BE GENERATED BY APPLYING BIOMT TRANSFORMATIONS
REMARK 350 GIVEN BELOW. BOTH NON-CRYSTALLOGRAPHIC AND
REMARK 350 CRYSTALLOGRAPHIC OPERATIONS ARE GIVEN.
REMARK 350
REMARK 350 BIOMOLECULE: 1
REMARK 350 SOFTWARE DETERMINED QUATERNARY STRUCTURE: MONOMERIC
REMARK 350 SOFTWARE USED: PISA
REMARK 350 SURFACE AREA OF THE MONOMER: 7881 ANGSTROM**2
REMARK 350 FREE ENERGY OF FOLDING: -155.8 KCAL/MOL
REMARK 350 APPLY THE FOLLOWING TO CHAINS: A,W
REMARK 350   BIOMT1   1  1.000000  0.000000  0.000000        0.00000
REMARK 350   BIOMT2   1  0.000000  1.000000  0.000000        0.00000
REMARK 350   BIOMT3   1  0.000000  0.000000  1.000000        0.00000
REMARK 350
REMARK 350 BIOMOLECULE: 2
REMARK 350 SOFTWARE DETERMINED QUATERNARY STRUCTURE: MONOMERIC
REMARK 350 SOFTWARE USED: PISA
REMARK 350 SURFACE AREA OF THE MONOMER: 8050 ANGSTROM**2
REMARK 350 FREE ENERGY OF FOLDING: -157.1 KCAL/MOL
REMARK 350 APPLY THE FOLLOWING TO CHAINS: B,W
REMARK 350   BIOMT1   1  1.000000  0.000000  0.000000        0.00000
REMARK 350   BIOMT2   1  0.000000  1.000000  0.000000        0.00000
REMARK 350   BIOMT3   1  0.000000  0.000000  1.000000        0.00000
CRYST1   88.688   88.688   39.407  90.00  90.00  90.00 P 43                     


$$$$
SARS2_Mac1A-A0071
  PyMOL3.0          3D                             0

 21 23  0  0  0  0  0  0  0  0999 V2000
   -0.4530   14.5800   -3.5600 N   0  0  0  0  0  0  0  0  0  0  0  0
   -0.0060   12.5580   -2.2640 C   0  0  0  0  0  0  0  0  0  0  0  0
    0.5340   13.2840   -1.3930 O   0  0  0  0  0  0  0  0  0  0  0  0
   -0.9230   13.2100   -3.2940 C   0  0  0  0  0  0  0  0  0  0  0  0
   -3.6470   15.6060   -3.7290 N   0  0  0  0  0  0  0  0  0  0  0  0
    0.1400   11.2210   -2.3620 O   0  0  0  0  0  0  0  0  0  0  0  0
   -1.2120   12.4050   -4.5750 C   0  0  0  0  0  0  0  0  0  0  0  0
   -5.2540   15.4500   -1.9550 N   0  0  0  0  0  0  0  0  0  0  0  0
   -1.0560   16.6580   -4.1210 O   0  0  0  0  0  0  0  0  0  0  0  0
   -0.0010   12.0800   -5.4610 C   0  0  0  0  0  0  0  0  0  0  0  0
   -4.3100   15.0440    0.2240 N   0  0  0  0  0  0  0  0  0  0  0  0
    1.3690   12.6270   -5.0770 C   0  0  0  0  0  0  0  0  0  0  0  0
    1.5400   14.1140   -4.9740 C   0  0  0  0  0  0  0  0  0  0  0  0
    0.9730   14.8270   -3.7680 C   0  0  0  0  0  0  0  0  0  0  0  0
   -1.3000   15.6130   -3.5400 C   0  0  0  0  0  0  0  0  0  0  0  0
   -2.6340   15.4600   -2.8620 C   0  0  0  0  0  0  0  0  0  0  0  0
   -4.8760   15.6070   -3.2220 C   0  0  0  0  0  0  0  0  0  0  0  0
   -4.2280   15.2600   -1.1230 C   0  0  0  0  0  0  0  0  0  0  0  0
   -3.0330   14.9190    0.7130 C   0  0  0  0  0  0  0  0  0  0  0  0
   -2.1290   15.0440   -0.2940 C   0  0  0  0  0  0  0  0  0  0  0  0
   -2.8750   15.2620   -1.4890 C   0  0  0  0  0  0  0  0  0  0  0  0
  1  4  1  0  0  0  0
  1 14  1  0  0  0  0
  2  3  4  0  0  0  0
  2  6  4  0  0  0  0
  2  4  1  0  0  0  0
  4  7  1  0  0  0  0
  8 17  4  0  0  0  0
  9 15  2  0  0  0  0
  7 10  1  0  0  0  0
 11 18  4  0  0  0  0
 10 12  1  0  0  0  0
 12 13  1  0  0  0  0
 13 14  1  0  0  0  0
  1 15  1  0  0  0  0
 15 16  1  0  0  0  0
  5 16  4  0  0  0  0
 16 21  4  0  0  0  0
  5 17  4  0  0  0  0
  8 18  4  0  0  0  0
 11 19  4  0  0  0  0
 19 20  4  0  0  0  0
 18 21  4  0  0  0  0
 20 21  4  0  0  0  0
M  END
>  <pdb_header>
REMARK --------------------- added by autoBUSTER ---------------------------------START
REMARK run at   = Mon Mar 27 16:42:35 BST 2023
REMARK     in   = /dls/labxchem/data/lb32627/lb32627-1/processing/analysis/model_building/SARS2_Mac1A-A0071
REMARK     user = ill13029
REMARK     cmd  = \
REMARK            /dls_sw/apps/GPhL/BUSTER/20221121/autoBUSTER/bin/linux64/refine \
REMARK            -p \
REMARK            /dls/labxchem/data/lb32627/lb32627-1/processing/analysis/model_building/SARS2_Mac1A-A0071/cootOut/Refine_9/in.pdb \
REMARK            -m \
REMARK            /dls/labxchem/data/lb32627/lb32627-1/processing/analysis/model_building/SARS2_Mac1A-A0071/SARS2_Mac1A-A0071.free.mtz \
REMARK            -l \
REMARK            /dls/labxchem/data/lb32627/lb32627-1/processing/analysis/model_building/SARS2_Mac1A-A0071/ASAP-0000072-001.cif \
REMARK            -autoncs -M ADP -d Refine_9
REMARK Files used:
REMARK   PDB              = Refine_9/pdbchk.pdb
REMARK   MTZ              = /dls/labxchem/data/lb32627/lb32627-1/processing/analysis/model_building/SARS2_Mac1A-A0071/SARS2_Mac1A-A0071.free.mtz
REMARK output written to subdirectory = Refine_9
REMARK best refinement for F,SIGF with R/Rfree 0.1927/0.2312
REMARK header records are copied from input PDB file (apart from REMARK 3!)
REMARK --------------------- added by autoBUSTER -----------------------------------END
REMARK --------------------- added by autoBUSTER -------------------------------
REMARK run at   = Wed Dec 14 16:56:22 GMT 2022                                  
REMARK     in   = /dls/labxchem/data/lb32627/lb32627-1/processing/analysis/model
REMARK     user = ejx48977                                                      
REMARK     cmd  = \                                                             
REMARK            /dls_sw/apps/GPhL/BUSTER/20220608/autoBUSTER/bin/linux64/refin
REMARK            -p \                                                          
REMARK            /dls/labxchem/data/lb32627/lb32627-1/processing/analysis/model
REMARK            -m \                                                          
REMARK            /dls/labxchem/data/lb32627/lb32627-1/processing/analysis/model
REMARK            -l \                                                          
REMARK            /dls/labxchem/data/lb32627/lb32627-1/processing/analysis/model
REMARK            -autoncs -M ADP -B user -Gelly gelly.dat -d Refine_7          
REMARK Files used:                                                              
REMARK   PDB              = Refine_7/pdbchk.pdb                                 
REMARK   MTZ              = /dls/labxchem/data/lb32627/lb32627-1/processing/anal
REMARK   Gelly commands       = /dls/labxchem/data/lb32627/lb32627-1/processing/
REMARK output written to subdirectory = Refine_7                                
REMARK best refinement for F,SIGF with R/Rfree 0.1926/0.2310                    
REMARK header records are copied from input PDB file (apart from REMARK 3!)     
REMARK --------------------- added by autoBUSTER -------------------------------
REMARK --------------------- added by autoBUSTER -------------------------------
REMARK run at   = Wed Dec  7 16:13:04 GMT 2022                                  
REMARK     in   = /dls/labxchem/data/lb32627/lb32627-1/processing/analysis/model
REMARK     user = ill13029                                                      
REMARK     cmd  = \                                                             
REMARK            /dls_sw/apps/GPhL/BUSTER/20220608/autoBUSTER/bin/linux64/refin
REMARK            -p \                                                          
REMARK            /dls/labxchem/data/lb32627/lb32627-1/processing/analysis/model
REMARK            -m \                                                          
REMARK            /dls/labxchem/data/lb32627/lb32627-1/processing/analysis/model
REMARK            -l \                                                          
REMARK            /dls/labxchem/data/lb32627/lb32627-1/processing/analysis/model
REMARK            -autoncs -M ADP -d Refine_6                                   
REMARK Files used:                                                              
REMARK   PDB              = Refine_6/pdbchk.pdb                                 
REMARK   MTZ              = /dls/labxchem/data/lb32627/lb32627-1/processing/anal
REMARK output written to subdirectory = Refine_6                                
REMARK best refinement for F,SIGF with R/Rfree 0.1936/0.2316                    
REMARK header records are copied from input PDB file (apart from REMARK 3!)     
REMARK --------------------- added by autoBUSTER -------------------------------
REMARK --------------------- added by autoBUSTER -------------------------------
REMARK run at   = Wed Dec  7 11:12:29 GMT 2022                                  
REMARK     in   = /dls/labxchem/data/lb32627/lb32627-1/processing/analysis/model
REMARK     user = ill13029                                                      
REMARK     cmd  = \                                                             
REMARK            /dls_sw/apps/GPhL/BUSTER/20220608/autoBUSTER/bin/linux64/refin
REMARK            -p \                                                          
REMARK            /dls/labxchem/data/lb32627/lb32627-1/processing/analysis/model
REMARK            -m \                                                          
REMARK            /dls/labxchem/data/lb32627/lb32627-1/processing/analysis/model
REMARK            -l \                                                          
REMARK            /dls/labxchem/data/lb32627/lb32627-1/processing/analysis/model
REMARK            -autoncs -M ADP -d Refine_5                                   
REMARK Files used:                                                              
REMARK   PDB              = Refine_5/pdbchk.pdb                                 
REMARK   MTZ              = /dls/labxchem/data/lb32627/lb32627-1/processing/anal
REMARK output written to subdirectory = Refine_5                                
REMARK best refinement for F,SIGF with R/Rfree 0.1923/0.2317                    
REMARK header records are copied from input PDB file (apart from REMARK 3!)     
REMARK --------------------- added by autoBUSTER -------------------------------
REMARK --------------------- added by autoBUSTER -------------------------------
REMARK run at   = Tue Nov 29 10:15:53 GMT 2022                                  
REMARK     in   = /dls/labxchem/data/lb32627/lb32627-1/processing/analysis/model
REMARK     user = ill13029                                                      
REMARK     cmd  = \                                                             
REMARK            /dls_sw/apps/GPhL/BUSTER/20220608/autoBUSTER/bin/linux64/refin
REMARK            -p \                                                          
REMARK            /dls/labxchem/data/lb32627/lb32627-1/processing/analysis/model
REMARK            -m \                                                          
REMARK            /dls/labxchem/data/lb32627/lb32627-1/processing/analysis/model
REMARK            -l \                                                          
REMARK            /dls/labxchem/data/lb32627/lb32627-1/processing/analysis/model
REMARK            -autoncs -M TLSbasic -d Refine_4                              
REMARK Files used:                                                              
REMARK   PDB              = Refine_4/pdbchk.pdb                                 
REMARK   MTZ              = /dls/labxchem/data/lb32627/lb32627-1/processing/anal
REMARK output written to subdirectory = Refine_4                                
REMARK best refinement for F,SIGF with R/Rfree 0.2081/0.2394                    
REMARK header records are copied from input PDB file (apart from REMARK 3!)     
REMARK --------------------- added by autoBUSTER -------------------------------
HEADER    ----                                    18-MAY-20                     
TITLE     ---                                                                   
COMPND    ---                                                                   
EXPDTA    X-RAY DIFFRACTION
REMARK   2                                                            
REMARK   2 RESOLUTION.    1.14 ANGSTROMS.
REMARK   3
REMARK   3 REFINEMENT.
REMARK   3   PROGRAM     : BUSTER 2.10.4 (21-NOV-2022)
REMARK   3   AUTHORS     : BRICOGNE,BLANC,BRANDL,FLENSBURG,KELLER,
REMARK   3               : PACIOREK,ROVERSI,SHARFF,SMART,VONRHEIN,WOMACK;
REMARK   3               : MATTHEWS,TEN EYCK,TRONRUD
REMARK   3
REMARK   3  DATA USED IN REFINEMENT.
REMARK   3   RESOLUTION RANGE HIGH (ANGSTROMS) : 1.137
REMARK   3   RESOLUTION RANGE LOW  (ANGSTROMS) : 39.55
REMARK   3   DATA CUTOFF            (SIGMA(F)) : 0.000
REMARK   3   COMPLETENESS FOR RANGE        (%) : 84.5
REMARK   3   NUMBER OF REFLECTIONS             : 94490
REMARK   3
REMARK   3  FIT TO DATA USED IN REFINEMENT.
REMARK   3   CROSS-VALIDATION METHOD          : THROUGHOUT
REMARK   3   FREE R VALUE TEST SET SELECTION  : RANDOM
REMARK   3   R VALUE     (WORKING + TEST SET) : 0.1946
REMARK   3   R VALUE            (WORKING SET) : 0.1927
REMARK   3   FREE R VALUE                     : 0.2312
REMARK   3   FREE R VALUE TEST SET SIZE   (%) : 4.960
REMARK   3   FREE R VALUE TEST SET COUNT      : 4689
REMARK   3   ESTIMATED ERROR OF FREE R VALUE  : NULL
REMARK   3
REMARK   3  FIT IN THE HIGHEST RESOLUTION BIN.
REMARK   3   TOTAL NUMBER OF BINS USED           : 51
REMARK   3   BIN RESOLUTION RANGE HIGH       (A) : 1.14
REMARK   3   BIN RESOLUTION RANGE LOW        (A) : 1.19
REMARK   3   BIN COMPLETENESS (WORKING+TEST) (%) : 12.62
REMARK   3   REFLECTIONS IN BIN   (WORKING+TEST) : 1890
REMARK   3   BIN R VALUE          (WORKING+TEST) : 0.3867
REMARK   3   REFLECTIONS IN BIN    (WORKING SET) : 1788
REMARK   3   BIN R VALUE           (WORKING SET) : 0.3835
REMARK   3   BIN FREE R VALUE                    : 0.4437
REMARK   3   BIN FREE R VALUE TEST SET SIZE  (%) : 5.40
REMARK   3   BIN FREE R VALUE TEST SET COUNT     : 102
REMARK   3   ESTIMATED ERROR OF BIN FREE R VALUE : NULL
REMARK   3
REMARK   3  NUMBER OF NON-HYDROGEN ATOMS USED IN REFINEMENT.
REMARK   3   PROTEIN ATOMS            : 2518
REMARK   3   NUCLEIC ACID ATOMS       : 0
REMARK   3   HETEROGEN ATOMS          : 29
REMARK   3   SOLVENT ATOMS            : 383
REMARK   3
REMARK   3  B VALUES.
REMARK   3   FROM WILSON PLOT           (A**2) : 14.49
REMARK   3   MEAN B VALUE      (OVERALL, A**2) : 22.89
REMARK   3   OVERALL ANISOTROPIC B VALUE.
REMARK   3    B11 (A**2) : 3.46150
REMARK   3    B22 (A**2) : 3.46150
REMARK   3    B33 (A**2) : -6.92300
REMARK   3    B12 (A**2) : 0.00000
REMARK   3    B13 (A**2) : 0.00000
REMARK   3    B23 (A**2) : 0.00000
REMARK   3
REMARK   3  ESTIMATED COORDINATE ERROR.
REMARK   3   ESD FROM LUZZATI PLOT                    (A) : 0.19
REMARK   3   DPI (BLOW EQ-10) BASED ON R VALUE        (A) : 0.046
REMARK   3   DPI (BLOW EQ-9) BASED ON FREE R VALUE    (A) : 0.051
REMARK   3   DPI (CRUICKSHANK) BASED ON R VALUE       (A) : 0.044
REMARK   3   DPI (CRUICKSHANK) BASED ON FREE R VALUE  (A) : 0.049
REMARK   3
REMARK   3   REFERENCES: BLOW, D. (2002) ACTA CRYST D58, 792-797
REMARK   3               CRUICKSHANK, D.W.J. (1999) ACTA CRYST D55, 583-601
REMARK   3
REMARK   3  CORRELATION COEFFICIENTS.
REMARK   3   CORRELATION COEFFICIENT FO-FC      : 0.947
REMARK   3   CORRELATION COEFFICIENT FO-FC FREE : 0.930
REMARK   3
REMARK   3  X-RAY WEIGHT : 6.92
REMARK   3
REMARK   3  GEOMETRY FUNCTION.                                                  
REMARK   3   RESTRAINT LIBRARIES.                                               
REMARK   3    NUMBER OF LIBRARIES USED :   9                                    
REMARK   3    LIBRARY  1 : protgeo_eh99.dat (V1.6.4.20) 20220523  STANDARD      
REMARK   3                 AMINO ACID DICTIONARY. BONDS AND ANGLES FROM         
REMARK   3                 ENGH AND HUBER EH99. OTHER VALUES BASED ON           
REMARK   3                 PREVIOUS TNT OR TAKEN FROM CCP4. INCLUDES            
REMARK   3                 HYDROGEN ATOMS.                                      
REMARK   3    LIBRARY  2 : exoticaa.dat (V1.3.4.16) 20220523  COLLECTION        
REMARK   3                 OF NON-STANDARD AMINO ACIDS, MAINLY EH91             
REMARK   3                 WITHOUT IDEAL DISTANCE INFO                          
REMARK   3    LIBRARY  3 : nuclgeo.dat (V1.13.4.9) 20221011                     
REMARK   3    LIBRARY  4 : bcorrel.dat (V1.15.10.2) 20190616                    
REMARK   3    LIBRARY  5 : contact.dat (V1.15.12.10) 20191121                   
REMARK   3    LIBRARY  6 : idealdist_contact.dat (V1.3.4.13) 20220125           
REMARK   3                 IDEAL-DISTANCE CONTACT TERM DATA AS USED IN          
REMARK   3                 PROLSQ. VALUES USED HERE ARE BASED ON DATA           
REMARK   3                 HARVESTING OF PDB AS OF 20190109.                    
REMARK   3    LIBRARY  7 : restraints for LIG (unknown) from cif                
REMARK   3                 dictionary ASAP-0000072-001.cif; generated by        
REMARK   3                 GRADE 1.2.21 (Feb 03 2022) from SMILES               
REMARK   3                 O=C(O)C1CCCCCN1C(=O)c1ncnc2[nH]ccc12 using           
REMARK   3                 MOGUL 1.8.5(274361), CSD as541be, with quantum       
REMARK   3                 mechanics RM1                                        
REMARK   3    LIBRARY  8 : restraints for DMS (DIMETHYL SULFOXIDE) from         
REMARK   3                 cif dictionary DMS.cif; generated by grade2          
REMARK   3                 version 1.1.0a7 from                                 
REMARK   3                 PDB_chemical_components_definition_file              
REMARK   3                 ftp://ftp.ebi.ac.uk/pub/databases/msd/pdbechem_v     
REMARK   3                 2/D/DMS/DMS.cif using RDKit 2021.03.4                
REMARK   3                 ((DatabaseID PDB-DMS))                               
REMARK   3    LIBRARY  9 : assume.dat (V1.9.4.3) 20221011                       
REMARK   3                                                                      
REMARK   3   NUMBER OF GEOMETRIC FUNCTION TERMS DEFINED : 15                    
REMARK   3   TERM                          COUNT    WEIGHT   FUNCTION.          
REMARK   3    BOND LENGTHS              :   2625 ;   2.00 ;  HARMONIC           
REMARK   3    BOND ANGLES               :   3573 ;   2.00 ;  HARMONIC           
REMARK   3    TORSION ANGLES            :    895 ;   2.00 ;  SINUSOIDAL         
REMARK   3    TRIGONAL CARBON PLANES    :   NULL ;   NULL ;  NULL               
REMARK   3    GENERAL PLANES            :    466 ;   5.00 ;  HARMONIC           
REMARK   3    ISOTROPIC THERMAL FACTORS :   2596 ;  10.00 ;  HARMONIC           
REMARK   3    BAD NON-BONDED CONTACTS   :   NULL ;   NULL ;  NULL               
REMARK   3    IMPROPER TORSIONS         :   NULL ;   NULL ;  NULL               
REMARK   3    PSEUDOROTATION ANGLES     :   NULL ;   NULL ;  NULL               
REMARK   3    CHIRAL IMPROPER TORSION   :    336 ;   5.00 ;  SEMIHARMONIC       
REMARK   3    SUM OF OCCUPANCIES        :   NULL ;   NULL ;  NULL               
REMARK   3    UTILITY DISTANCES         :   NULL ;   NULL ;  NULL               
REMARK   3    UTILITY ANGLES            :   NULL ;   NULL ;  NULL               
REMARK   3    UTILITY TORSION           :   NULL ;   NULL ;  NULL               
REMARK   3    IDEAL-DIST CONTACT TERM   :   2973 ;   4.00 ;  SEMIHARMONIC       
REMARK   3                                                                      
REMARK   3   RMS DEVIATIONS FROM IDEAL VALUES.                                  
REMARK   3   BOND LENGTHS                       (A) : 0.014                     
REMARK   3   BOND ANGLES                  (DEGREES) : 1.30                      
REMARK   3   PEPTIDE OMEGA TORSION ANGLES (DEGREES) : 4.86                      
REMARK   3   OTHER TORSION ANGLES         (DEGREES) : 14.10                     
REMARK   3                                                                      
REMARK   3   SIMILARITY.                                                        
REMARK   3    NCS.                                                              
REMARK   3     NCS METHOD: RESTRAINT LSSR (-AUTONCS)                            
REMARK   3    TARGET RESTRAINTS.                                                
REMARK   3     TARGET REPRESENTATION : NONE                                     
REMARK   3     TARGET STRUCTURE : NULL                                          
REMARK   3                                                                      
REMARK   3  TLS DETAILS.                                                        
REMARK   3   NUMBER OF TLS GROUPS  :            0                               
REMARK   3                                                                      
REMARK   3  REFINEMENT NOTES.                                                   
REMARK   3   NUMBER OF REFINEMENT NOTES :   1                                   
REMARK   3   NOTE   1 : IDEAL-DIST CONTACT TERM CONTACT SETUP. ALL ATOMS        
REMARK   3               HAVE CCP4 ATOM TYPE FROM LIBRARY                       
REMARK   3
REMARK   3  OTHER REFINEMENT REMARKS: NULL
REMARK   3
REMARK 290                                                            
REMARK 290 CRYSTALLOGRAPHIC SYMMETRY                                  
REMARK 290 SYMMETRY OPERATORS FOR SPACE GROUP: P 43                   
REMARK 290                                                            
REMARK 290      SYMOP   SYMMETRY                                      
REMARK 290     NNNMMM   OPERATOR                                      
REMARK 290       1555   X,Y,Z                                         
REMARK 290       2555   -X,-Y,1/2+Z                                   
REMARK 290       3555   -Y,X,3/4+Z                                    
REMARK 290       4555   Y,-X,1/4+Z                                    
REMARK 290                                                            
REMARK 290     WHERE NNN -> OPERATOR NUMBER                           
REMARK 290           MMM -> TRANSLATION VECTOR                        
REMARK 290                                                            
REMARK 290 CRYSTALLOGRAPHIC SYMMETRY TRANSFORMATIONS                  
REMARK 290 THE FOLLOWING TRANSFORMATIONS OPERATE ON THE ATOM/HETATM   
REMARK 290 RECORDS IN THIS ENTRY TO PRODUCE CRYSTALLOGRAPHICALLY      
REMARK 290 RELATED MOLECULES.                                         
REMARK 290   SMTRY1   1  1.000000  0.000000  0.000000        0.00000
REMARK 290   SMTRY2   1  0.000000  1.000000  0.000000        0.00000
REMARK 290   SMTRY3   1  0.000000  0.000000  1.000000        0.00000
REMARK 290   SMTRY1   2 -1.000000  0.000000  0.000000        0.00000
REMARK 290   SMTRY2   2  0.000000 -1.000000  0.000000        0.00000
REMARK 290   SMTRY3   2  0.000000  0.000000  1.000000       19.64600
REMARK 290   SMTRY1   3  0.000000 -1.000000  0.000000        0.00000
REMARK 290   SMTRY2   3  1.000000  0.000000  0.000000        0.00000
REMARK 290   SMTRY3   3  0.000000  0.000000  1.000000       29.46900
REMARK 290   SMTRY1   4  0.000000  1.000000  0.000000        0.00000
REMARK 290   SMTRY2   4 -1.000000  0.000000  0.000000        0.00000
REMARK 290   SMTRY3   4  0.000000  0.000000  1.000000        9.82300
REMARK 290                                                            
REMARK 290 REMARK: NULL                                               
CRYST1   88.429   88.429   39.292  90.00  90.00  90.00 P 43           


$$$$
SARS2_Mac1A-A0089
  PyMOL3.0          3D                             0

 20 22  0  0  0  0  0  0  0  0999 V2000
    0.2220   13.5230   -2.8280 N   0  0  0  0  0  0  0  0  0  0  0  0
   -3.1160   15.0010   -0.7300 C   0  0  0  0  0  0  0  0  0  0  0  0
   -1.6420   14.9210    1.2240 O   0  0  0  0  0  0  0  0  0  0  0  0
   -1.7220   15.2220   -0.1700 C   0  0  0  0  0  0  0  0  0  0  0  0
    1.3720   11.9680   -4.1780 N   0  0  0  0  0  0  0  0  0  0  0  0
   -1.4900   12.5920   -1.7230 O   0  0  0  0  0  0  0  0  0  0  0  0
   -0.2540   14.8330    1.5100 C   0  0  0  0  0  0  0  0  0  0  0  0
    0.1380   10.9620   -5.9770 N   0  0  0  0  0  0  0  0  0  0  0  0
    0.5330   14.4960    0.1960 C   0  0  0  0  0  0  0  0  0  0  0  0
   -1.9890   11.9670   -6.4430 N   0  0  0  0  0  0  0  0  0  0  0  0
   -0.5350   14.6100   -0.8890 C   0  0  0  0  0  0  0  0  0  0  0  0
   -0.6370   13.4640   -1.8350 C   0  0  0  0  0  0  0  0  0  0  0  0
    0.2630   12.6600   -3.8930 C   0  0  0  0  0  0  0  0  0  0  0  0
    1.2040   11.1290   -5.2020 C   0  0  0  0  0  0  0  0  0  0  0  0
   -0.8980   11.7350   -5.6380 C   0  0  0  0  0  0  0  0  0  0  0  0
   -0.9560   12.5880   -4.5420 C   0  0  0  0  0  0  0  0  0  0  0  0
   -2.1530   13.3700   -4.6940 C   0  0  0  0  0  0  0  0  0  0  0  0
   -2.7430   14.4240   -3.8020 C   0  0  0  0  0  0  0  0  0  0  0  0
   -2.7210   12.9850   -5.8730 C   0  0  0  0  0  0  0  0  0  0  0  0
   -3.8310   13.6340   -6.6320 C   0  0  0  0  0  0  0  0  0  0  0  0
  3  4  1  0  0  0  0
  3  7  1  0  0  0  0
  2  4  1  0  0  0  0
  7  9  1  0  0  0  0
 10 19  4  0  0  0  0
  4 11  1  0  0  0  0
  9 11  1  0  0  0  0
  1 12  1  0  0  0  0
  6 12  2  0  0  0  0
 11 12  1  0  0  0  0
  1 13  1  0  0  0  0
  5 13  4  0  0  0  0
 13 16  4  0  0  0  0
  5 14  4  0  0  0  0
  8 14  4  0  0  0  0
  8 15  4  0  0  0  0
 10 15  4  0  0  0  0
 15 16  4  0  0  0  0
 16 17  4  0  0  0  0
 17 18  1  0  0  0  0
 17 19  4  0  0  0  0
 19 20  1  0  0  0  0
M  END
>  <pdb_header>
HEADER    ----                                    18-MAY-20                     
TITLE     ---                                                                   
EXPDTA    X-RAY DIFFRACTION                                                     
REMARK --------------------- added by autoBUSTER ---------------------------------START
REMARK run at   = Mon Mar 27 16:42:42 BST 2023
REMARK     in   = /dls/labxchem/data/lb32627/lb32627-1/processing/analysis/model_building/SARS2_Mac1A-A0089
REMARK     user = ill13029
REMARK     cmd  = \
REMARK            /dls_sw/apps/GPhL/BUSTER/20221121/autoBUSTER/bin/linux64/refine \
REMARK            -p \
REMARK            /dls/labxchem/data/lb32627/lb32627-1/processing/analysis/model_building/SARS2_Mac1A-A0089/cootOut/Refi
REMARK            -m \
REMARK            /dls/labxchem/data/lb32627/lb32627-1/processing/analysis/model_building/SARS2_Mac1A-A0089/SARS2_Mac1A-
REMARK            -l \
REMARK            /dls/labxchem/data/lb32627/lb32627-1/processing/analysis/model_building/SARS2_Mac1A-A0089/ASAP-0000090
REMARK            -autoncs -M ADP -d Refine_19
REMARK Files used:
REMARK   PDB              = Refine_19/pdbchk.pdb
REMARK   MTZ              = /dls/labxchem/data/lb32627/lb32627-1/processing/analysis/model_building/SARS2_Mac1A-A0089/SA
REMARK output written to subdirectory = Refine_19
REMARK best refinement for F,SIGF with R/Rfree 0.1691/0.2029
REMARK header records are copied from input PDB file (apart from REMARK 3!)
REMARK --------------------- added by autoBUSTER -----------------------------------END
REMARK --------------------- added by autoBUSTER -------------------------------
REMARK run at   = Thu Dec  8 16:43:10 GMT 2022                                  
REMARK     in   = /dls/labxchem/data/lb32627/lb32627-1/processing/analysis/model
REMARK     user = ill13029                                                      
REMARK     cmd  = \                                                             
REMARK            /dls_sw/apps/GPhL/BUSTER/20220608/autoBUSTER/bin/linux64/refin
REMARK            -p \                                                          
REMARK            /dls/labxchem/data/lb32627/lb32627-1/processing/analysis/model
REMARK            -m \                                                          
REMARK            /dls/labxchem/data/lb32627/lb32627-1/processing/analysis/model
REMARK            -l \                                                          
REMARK            /dls/labxchem/data/lb32627/lb32627-1/processing/analysis/model
REMARK            -autoncs -M ADP -d Refine_17                                  
REMARK Files used:                                                              
REMARK   PDB              = Refine_17/pdbchk.pdb                                
REMARK   MTZ              = /dls/labxchem/data/lb32627/lb32627-1/processing/anal
REMARK output written to subdirectory = Refine_17                               
REMARK best refinement for F,SIGF with R/Rfree 0.1669/0.2005                    
REMARK header records are copied from input PDB file (apart from REMARK 3!)     
REMARK --------------------- added by autoBUSTER -------------------------------
REMARK --------------------- added by autoBUSTER -------------------------------
REMARK run at   = Thu Dec  8 16:06:12 GMT 2022                                  
REMARK     in   = /dls/labxchem/data/lb32627/lb32627-1/processing/analysis/model
REMARK     user = ill13029                                                      
REMARK     cmd  = \                                                             
REMARK            /dls_sw/apps/GPhL/BUSTER/20220608/autoBUSTER/bin/linux64/refin
REMARK            -p \                                                          
REMARK            /dls/labxchem/data/lb32627/lb32627-1/processing/analysis/model
REMARK            -m \                                                          
REMARK            /dls/labxchem/data/lb32627/lb32627-1/processing/analysis/model
REMARK            -l \                                                          
REMARK            /dls/labxchem/data/lb32627/lb32627-1/processing/analysis/model
REMARK            -autoncs -M ADP -d Refine_16                                  
REMARK Files used:                                                              
REMARK   PDB              = Refine_16/pdbchk.pdb                                
REMARK   MTZ              = /dls/labxchem/data/lb32627/lb32627-1/processing/anal
REMARK output written to subdirectory = Refine_16                               
REMARK best refinement for F,SIGF with R/Rfree 0.1669/0.2004                    
REMARK header records are copied from input PDB file (apart from REMARK 3!)     
REMARK --------------------- added by autoBUSTER -------------------------------
REMARK --------------------- added by autoBUSTER -------------------------------
REMARK run at   = Thu Dec  8 15:50:00 GMT 2022                                  
REMARK     in   = /dls/labxchem/data/lb32627/lb32627-1/processing/analysis/model
REMARK     user = ill13029                                                      
REMARK     cmd  = \                                                             
REMARK            /dls_sw/apps/GPhL/BUSTER/20220608/autoBUSTER/bin/linux64/refin
REMARK            -p \                                                          
REMARK            /dls/labxchem/data/lb32627/lb32627-1/processing/analysis/model
REMARK            -m \                                                          
REMARK            /dls/labxchem/data/lb32627/lb32627-1/processing/analysis/model
REMARK            -l \                                                          
REMARK            /dls/labxchem/data/lb32627/lb32627-1/processing/analysis/model
REMARK            -autoncs -M TLSbasic -M ShortRunVoid -d Refine_15             
REMARK Files used:                                                              
REMARK   PDB              = Refine_15/pdbchk.pdb                                
REMARK   MTZ              = /dls/labxchem/data/lb32627/lb32627-1/processing/anal
REMARK output written to subdirectory = Refine_15                               
REMARK best refinement for F,SIGF with R/Rfree 0.2093/0.2363                    
REMARK header records are copied from input PDB file (apart from REMARK 3!)     
REMARK --------------------- added by autoBUSTER -------------------------------
REMARK --------------------- added by autoBUSTER -------------------------------
REMARK run at   = Thu Dec  8 12:50:41 GMT 2022                                  
REMARK     in   = /dls/labxchem/data/lb32627/lb32627-1/processing/analysis/model
REMARK     user = ill13029                                                      
REMARK     cmd  = \                                                             
REMARK            /dls_sw/apps/GPhL/BUSTER/20220608/autoBUSTER/bin/linux64/refin
REMARK            -p \                                                          
REMARK            /dls/labxchem/data/lb32627/lb32627-1/processing/analysis/model
REMARK            -m \                                                          
REMARK            /dls/labxchem/data/lb32627/lb32627-1/processing/analysis/model
REMARK            -l \                                                          
REMARK            /dls/labxchem/data/lb32627/lb32627-1/processing/analysis/model
REMARK            -autoncs -M TLSbasic -M ShortRunVoid -d Refine_15             
REMARK Files used:                                                              
REMARK   PDB              = Refine_15/pdbchk.pdb                                
REMARK   MTZ              = /dls/labxchem/data/lb32627/lb32627-1/processing/anal
REMARK output written to subdirectory = Refine_15                               
REMARK best refinement for F,SIGF with R/Rfree 0.2104/0.2369                    
REMARK header records are copied from input PDB file (apart from REMARK 3!)     
REMARK --------------------- added by autoBUSTER -------------------------------
REMARK --------------------- added by autoBUSTER -------------------------------
REMARK run at   = Thu Dec  8 10:58:48 GMT 2022                                  
REMARK     in   = /dls/labxchem/data/lb32627/lb32627-1/processing/analysis/model
REMARK     user = ill13029                                                      
REMARK     cmd  = \                                                             
REMARK            /dls_sw/apps/GPhL/BUSTER/20220608/autoBUSTER/bin/linux64/refin
REMARK            -p \                                                          
REMARK            /dls/labxchem/data/lb32627/lb32627-1/processing/analysis/model
REMARK            -m \                                                          
REMARK            /dls/labxchem/data/lb32627/lb32627-1/processing/analysis/model
REMARK            -l \                                                          
REMARK            /dls/labxchem/data/lb32627/lb32627-1/processing/analysis/model
REMARK            -autoncs -M ADP -d Refine_14                                  
REMARK Files used:                                                              
REMARK   PDB              = Refine_14/pdbchk.pdb                                
REMARK   MTZ              = /dls/labxchem/data/lb32627/lb32627-1/processing/anal
REMARK output written to subdirectory = Refine_14                               
REMARK best refinement for F,SIGF with R/Rfree 0.1669/0.2005                    
REMARK header records are copied from input PDB file (apart from REMARK 3!)     
REMARK --------------------- added by autoBUSTER -------------------------------
REMARK --------------------- added by autoBUSTER -------------------------------
REMARK run at   = Thu Dec  8 10:24:48 GMT 2022                                  
REMARK     in   = /dls/labxchem/data/lb32627/lb32627-1/processing/analysis/model
REMARK     user = ill13029                                                      
REMARK     cmd  = \                                                             
REMARK            /dls_sw/apps/GPhL/BUSTER/20220608/autoBUSTER/bin/linux64/refin
REMARK            -p \                                                          
REMARK            /dls/labxchem/data/lb32627/lb32627-1/processing/analysis/model
REMARK            -m \                                                          
REMARK            /dls/labxchem/data/lb32627/lb32627-1/processing/analysis/model
REMARK            -l \                                                          
REMARK            /dls/labxchem/data/lb32627/lb32627-1/processing/analysis/model
REMARK            -autoncs -M ADP -d Refine_13                                  
REMARK Files used:                                                              
REMARK   PDB              = Refine_13/pdbchk.pdb                                
REMARK   MTZ              = /dls/labxchem/data/lb32627/lb32627-1/processing/anal
REMARK output written to subdirectory = Refine_13                               
REMARK best refinement for F,SIGF with R/Rfree 0.1669/0.2006                    
REMARK header records are copied from input PDB file (apart from REMARK 3!)     
REMARK --------------------- added by autoBUSTER -------------------------------
REMARK --------------------- added by autoBUSTER -------------------------------
REMARK run at   = Thu Dec  8 10:01:23 GMT 2022                                  
REMARK     in   = /dls/labxchem/data/lb32627/lb32627-1/processing/analysis/model
REMARK     user = ill13029                                                      
REMARK     cmd  = \                                                             
REMARK            /dls_sw/apps/GPhL/BUSTER/20220608/autoBUSTER/bin/linux64/refin
REMARK            -p \                                                          
REMARK            /dls/labxchem/data/lb32627/lb32627-1/processing/analysis/model
REMARK            -m \                                                          
REMARK            /dls/labxchem/data/lb32627/lb32627-1/processing/analysis/model
REMARK            -l \                                                          
REMARK            /dls/labxchem/data/lb32627/lb32627-1/processing/analysis/model
REMARK            -autoncs -M ADP -d Refine_12                                  
REMARK Files used:                                                              
REMARK   PDB              = Refine_12/pdbchk.pdb                                
REMARK   MTZ              = /dls/labxchem/data/lb32627/lb32627-1/processing/anal
REMARK output written to subdirectory = Refine_12                               
REMARK best refinement for F,SIGF with R/Rfree 0.1670/0.2006                    
REMARK header records are copied from input PDB file (apart from REMARK 3!)     
REMARK --------------------- added by autoBUSTER -------------------------------
REMARK --------------------- added by autoBUSTER -------------------------------
REMARK run at   = Thu Dec  8 09:30:00 GMT 2022                                  
REMARK     in   = /dls/labxchem/data/lb32627/lb32627-1/processing/analysis/model
REMARK     user = ill13029                                                      
REMARK     cmd  = \                                                             
REMARK            /dls_sw/apps/GPhL/BUSTER/20220608/autoBUSTER/bin/linux64/refin
REMARK            -p \                                                          
REMARK            /dls/labxchem/data/lb32627/lb32627-1/processing/analysis/model
REMARK            -m \                                                          
REMARK            /dls/labxchem/data/lb32627/lb32627-1/processing/analysis/model
REMARK            -l \                                                          
REMARK            /dls/labxchem/data/lb32627/lb32627-1/processing/analysis/model
REMARK            -autoncs -M ADP -d Refine_11                                  
REMARK Files used:                                                              
REMARK   PDB              = Refine_11/pdbchk.pdb                                
REMARK   MTZ              = /dls/labxchem/data/lb32627/lb32627-1/processing/anal
REMARK output written to subdirectory = Refine_11                               
REMARK best refinement for F,SIGF with R/Rfree 0.1669/0.2000                    
REMARK header records are copied from input PDB file (apart from REMARK 3!)     
REMARK --------------------- added by autoBUSTER -------------------------------
REMARK --------------------- added by autoBUSTER -------------------------------
REMARK run at   = Thu Dec  8 08:53:36 GMT 2022                                  
REMARK     in   = /dls/labxchem/data/lb32627/lb32627-1/processing/analysis/model
REMARK     user = ill13029                                                      
REMARK     cmd  = \                                                             
REMARK            /dls_sw/apps/GPhL/BUSTER/20220608/autoBUSTER/bin/linux64/refin
REMARK            -p \                                                          
REMARK            /dls/labxchem/data/lb32627/lb32627-1/processing/analysis/model
REMARK            -m \                                                          
REMARK            /dls/labxchem/data/lb32627/lb32627-1/processing/analysis/model
REMARK            -l \                                                          
REMARK            /dls/labxchem/data/lb32627/lb32627-1/processing/analysis/model
REMARK            -autoncs -M ADP -d Refine_10                                  
REMARK Files used:                                                              
REMARK   PDB              = Refine_10/pdbchk.pdb                                
REMARK   MTZ              = /dls/labxchem/data/lb32627/lb32627-1/processing/anal
REMARK output written to subdirectory = Refine_10                               
REMARK best refinement for F,SIGF with R/Rfree 0.1669/0.2000                    
REMARK header records are copied from input PDB file (apart from REMARK 3!)     
REMARK --------------------- added by autoBUSTER -------------------------------
REMARK --------------------- added by autoBUSTER -------------------------------
REMARK run at   = Wed Dec  7 17:35:06 GMT 2022                                  
REMARK     in   = /dls/labxchem/data/lb32627/lb32627-1/processing/analysis/model
REMARK     user = ill13029                                                      
REMARK     cmd  = \                                                             
REMARK            /dls_sw/apps/GPhL/BUSTER/20220608/autoBUSTER/bin/linux64/refin
REMARK            -p \                                                          
REMARK            /dls/labxchem/data/lb32627/lb32627-1/processing/analysis/model
REMARK            -m \                                                          
REMARK            /dls/labxchem/data/lb32627/lb32627-1/processing/analysis/model
REMARK            -l \                                                          
REMARK            /dls/labxchem/data/lb32627/lb32627-1/processing/analysis/model
REMARK            -autoncs -M ADP -B user -Gelly gelly.dat -d Refine_9          
REMARK Files used:                                                              
REMARK   PDB              = Refine_9/pdbchk.pdb                                 
REMARK   MTZ              = /dls/labxchem/data/lb32627/lb32627-1/processing/anal
REMARK   Gelly commands       = /dls/labxchem/data/lb32627/lb32627-1/processing/
REMARK output written to subdirectory = Refine_9                                
REMARK best refinement for F,SIGF with R/Rfree 0.1669/0.2006                    
REMARK header records are copied from input PDB file (apart from REMARK 3!)     
REMARK --------------------- added by autoBUSTER -------------------------------
REMARK --------------------- added by autoBUSTER -------------------------------
REMARK run at   = Wed Dec  7 16:24:27 GMT 2022                                  
REMARK     in   = /dls/labxchem/data/lb32627/lb32627-1/processing/analysis/model
REMARK     user = ill13029                                                      
REMARK     cmd  = \                                                             
REMARK            /dls_sw/apps/GPhL/BUSTER/20220608/autoBUSTER/bin/linux64/refin
REMARK            -p \                                                          
REMARK            /dls/labxchem/data/lb32627/lb32627-1/processing/analysis/model
REMARK            -m \                                                          
REMARK            /dls/labxchem/data/lb32627/lb32627-1/processing/analysis/model
REMARK            -l \                                                          
REMARK            /dls/labxchem/data/lb32627/lb32627-1/processing/analysis/model
REMARK            -autoncs -M ADP -d Refine_8                                   
REMARK Files used:                                                              
REMARK   PDB              = Refine_8/pdbchk.pdb                                 
REMARK   MTZ              = /dls/labxchem/data/lb32627/lb32627-1/processing/anal
REMARK output written to subdirectory = Refine_8                                
REMARK best refinement for F,SIGF with R/Rfree 0.1669/0.2007                    
REMARK header records are copied from input PDB file (apart from REMARK 3!)     
REMARK --------------------- added by autoBUSTER -------------------------------
REMARK --------------------- added by autoBUSTER -------------------------------
REMARK run at   = Wed Dec  7 11:19:46 GMT 2022                                  
REMARK     in   = /dls/labxchem/data/lb32627/lb32627-1/processing/analysis/model
REMARK     user = ill13029                                                      
REMARK     cmd  = \                                                             
REMARK            /dls_sw/apps/GPhL/BUSTER/20220608/autoBUSTER/bin/linux64/refin
REMARK            -p \                                                          
REMARK            /dls/labxchem/data/lb32627/lb32627-1/processing/analysis/model
REMARK            -m \                                                          
REMARK            /dls/labxchem/data/lb32627/lb32627-1/processing/analysis/model
REMARK            -l \                                                          
REMARK            /dls/labxchem/data/lb32627/lb32627-1/processing/analysis/model
REMARK            -autoncs -M ADP -d Refine_7                                   
REMARK Files used:                                                              
REMARK   PDB              = Refine_7/pdbchk.pdb                                 
REMARK   MTZ              = /dls/labxchem/data/lb32627/lb32627-1/processing/anal
REMARK output written to subdirectory = Refine_7                                
REMARK best refinement for F,SIGF with R/Rfree 0.1662/0.2002                    
REMARK header records are copied from input PDB file (apart from REMARK 3!)     
REMARK --------------------- added by autoBUSTER -------------------------------
REMARK --------------------- added by autoBUSTER -------------------------------
REMARK run at   = Tue Nov 29 10:15:53 GMT 2022                                  
REMARK     in   = /dls/labxchem/data/lb32627/lb32627-1/processing/analysis/model
REMARK     user = ill13029                                                      
REMARK     cmd  = \                                                             
REMARK            /dls_sw/apps/GPhL/BUSTER/20220608/autoBUSTER/bin/linux64/refin
REMARK            -p \                                                          
REMARK            /dls/labxchem/data/lb32627/lb32627-1/processing/analysis/model
REMARK            -m \                                                          
REMARK            /dls/labxchem/data/lb32627/lb32627-1/processing/analysis/model
REMARK            -l \                                                          
REMARK            /dls/labxchem/data/lb32627/lb32627-1/processing/analysis/model
REMARK            -autoncs -M TLSbasic -d Refine_6                              
REMARK Files used:                                                              
REMARK   PDB              = Refine_6/pdbchk.pdb                                 
REMARK   MTZ              = /dls/labxchem/data/lb32627/lb32627-1/processing/anal
REMARK output written to subdirectory = Refine_6                                
REMARK best refinement for F,SIGF with R/Rfree 0.1957/0.2188                    
REMARK header records are copied from input PDB file (apart from REMARK 3!)     
REMARK --------------------- added by autoBUSTER -------------------------------
REMARK   2                                                            
REMARK   2 RESOLUTION.    1.05 ANGSTROMS.
REMARK   3
REMARK   3 REFINEMENT.
REMARK   3   PROGRAM     : BUSTER 2.10.4 (21-NOV-2022)
REMARK   3   AUTHORS     : BRICOGNE,BLANC,BRANDL,FLENSBURG,KELLER,
REMARK   3               : PACIOREK,ROVERSI,SHARFF,SMART,VONRHEIN,WOMACK;
REMARK   3               : MATTHEWS,TEN EYCK,TRONRUD
REMARK   3
REMARK   3  DATA USED IN REFINEMENT.
REMARK   3   RESOLUTION RANGE HIGH (ANGSTROMS) : 1.054
REMARK   3   RESOLUTION RANGE LOW  (ANGSTROMS) : 39.69
REMARK   3   DATA CUTOFF            (SIGMA(F)) : 0.000
REMARK   3   COMPLETENESS FOR RANGE        (%) : 81.3
REMARK   3   NUMBER OF REFLECTIONS             : 114725
REMARK   3
REMARK   3  FIT TO DATA USED IN REFINEMENT.
REMARK   3   CROSS-VALIDATION METHOD          : THROUGHOUT
REMARK   3   FREE R VALUE TEST SET SELECTION  : RANDOM
REMARK   3   R VALUE     (WORKING + TEST SET) : 0.1707
REMARK   3   R VALUE            (WORKING SET) : 0.1691
REMARK   3   FREE R VALUE                     : 0.2029
REMARK   3   FREE R VALUE TEST SET SIZE   (%) : 5.070
REMARK   3   FREE R VALUE TEST SET COUNT      : 5820
REMARK   3   ESTIMATED ERROR OF FREE R VALUE  : NULL
REMARK   3
REMARK   3  FIT IN THE HIGHEST RESOLUTION BIN.
REMARK   3   TOTAL NUMBER OF BINS USED           : 51
REMARK   3   BIN RESOLUTION RANGE HIGH       (A) : 1.05
REMARK   3   BIN RESOLUTION RANGE LOW        (A) : 1.09
REMARK   3   BIN COMPLETENESS (WORKING+TEST) (%) : 17.60
REMARK   3   REFLECTIONS IN BIN   (WORKING+TEST) : 2295
REMARK   3   BIN R VALUE          (WORKING+TEST) : 0.4238
REMARK   3   REFLECTIONS IN BIN    (WORKING SET) : 2182
REMARK   3   BIN R VALUE           (WORKING SET) : 0.4217
REMARK   3   BIN FREE R VALUE                    : 0.4691
REMARK   3   BIN FREE R VALUE TEST SET SIZE  (%) : 4.92
REMARK   3   BIN FREE R VALUE TEST SET COUNT     : 113
REMARK   3   ESTIMATED ERROR OF BIN FREE R VALUE : NULL
REMARK   3
REMARK   3  NUMBER OF NON-HYDROGEN ATOMS USED IN REFINEMENT.
REMARK   3   PROTEIN ATOMS            : 2518
REMARK   3   NUCLEIC ACID ATOMS       : 0
REMARK   3   HETEROGEN ATOMS          : 20
REMARK   3   SOLVENT ATOMS            : 439
REMARK   3
REMARK   3  B VALUES.
REMARK   3   FROM WILSON PLOT           (A**2) : 12.65
REMARK   3   MEAN B VALUE      (OVERALL, A**2) : 22.98
REMARK   3   OVERALL ANISOTROPIC B VALUE.
REMARK   3    B11 (A**2) : 4.59320
REMARK   3    B22 (A**2) : 4.59320
REMARK   3    B33 (A**2) : -9.18640
REMARK   3    B12 (A**2) : 0.00000
REMARK   3    B13 (A**2) : 0.00000
REMARK   3    B23 (A**2) : 0.00000
REMARK   3
REMARK   3  ESTIMATED COORDINATE ERROR.
REMARK   3   ESD FROM LUZZATI PLOT                    (A) : 0.14
REMARK   3   DPI (BLOW EQ-10) BASED ON R VALUE        (A) : 0.035
REMARK   3   DPI (BLOW EQ-9) BASED ON FREE R VALUE    (A) : 0.039
REMARK   3   DPI (CRUICKSHANK) BASED ON R VALUE       (A) : 0.033
REMARK   3   DPI (CRUICKSHANK) BASED ON FREE R VALUE  (A) : 0.037
REMARK   3
REMARK   3   REFERENCES: BLOW, D. (2002) ACTA CRYST D58, 792-797
REMARK   3               CRUICKSHANK, D.W.J. (1999) ACTA CRYST D55, 583-601
REMARK   3
REMARK   3  CORRELATION COEFFICIENTS.
REMARK   3   CORRELATION COEFFICIENT FO-FC      : 0.937
REMARK   3   CORRELATION COEFFICIENT FO-FC FREE : 0.923
REMARK   3
REMARK   3  X-RAY WEIGHT : 6.98
REMARK   3
REMARK   3  GEOMETRY FUNCTION.                                                  
REMARK   3   RESTRAINT LIBRARIES.                                               
REMARK   3    NUMBER OF LIBRARIES USED :   8                                    
REMARK   3    LIBRARY  1 : protgeo_eh99.dat (V1.6.4.20) 20220523  STANDARD      
REMARK   3                 AMINO ACID DICTIONARY. BONDS AND ANGLES FROM         
REMARK   3                 ENGH AND HUBER EH99. OTHER VALUES BASED ON           
REMARK   3                 PREVIOUS TNT OR TAKEN FROM CCP4. INCLUDES            
REMARK   3                 HYDROGEN ATOMS.                                      
REMARK   3    LIBRARY  2 : exoticaa.dat (V1.3.4.16) 20220523  COLLECTION        
REMARK   3                 OF NON-STANDARD AMINO ACIDS, MAINLY EH91             
REMARK   3                 WITHOUT IDEAL DISTANCE INFO                          
REMARK   3    LIBRARY  3 : nuclgeo.dat (V1.13.4.9) 20221011                     
REMARK   3    LIBRARY  4 : bcorrel.dat (V1.15.10.2) 20190616                    
REMARK   3    LIBRARY  5 : contact.dat (V1.15.12.10) 20191121                   
REMARK   3    LIBRARY  6 : idealdist_contact.dat (V1.3.4.13) 20220125           
REMARK   3                 IDEAL-DISTANCE CONTACT TERM DATA AS USED IN          
REMARK   3                 PROLSQ. VALUES USED HERE ARE BASED ON DATA           
REMARK   3                 HARVESTING OF PDB AS OF 20190109.                    
REMARK   3    LIBRARY  7 : restraints for LIG (unknown) from cif                
REMARK   3                 dictionary ASAP-0000090-001.cif; generated by        
REMARK   3                 GRADE 1.2.21 (Feb 03 2022) from SMILES               
REMARK   3                 C[C@H]1OCC[C@H]1C(Nc1ncnc2c1c(C)c(C)[nH]2)=O         
REMARK   3                 using MOGUL 1.8.5(274361), CSD as541be, with         
REMARK   3                 quantum mechanics RM1                                
REMARK   3    LIBRARY  8 : assume.dat (V1.9.4.3) 20221011                       
REMARK   3                                                                      
REMARK   3   NUMBER OF GEOMETRIC FUNCTION TERMS DEFINED : 15                    
REMARK   3   TERM                          COUNT    WEIGHT   FUNCTION.          
REMARK   3    BOND LENGTHS              :   2618 ;   2.00 ;  HARMONIC           
REMARK   3    BOND ANGLES               :   3567 ;   2.00 ;  HARMONIC           
REMARK   3    TORSION ANGLES            :    893 ;   2.00 ;  SINUSOIDAL         
REMARK   3    TRIGONAL CARBON PLANES    :   NULL ;   NULL ;  NULL               
REMARK   3    GENERAL PLANES            :    466 ;   5.00 ;  HARMONIC           
REMARK   3    ISOTROPIC THERMAL FACTORS :   2596 ;  10.00 ;  HARMONIC           
REMARK   3    BAD NON-BONDED CONTACTS   :   NULL ;   NULL ;  NULL               
REMARK   3    IMPROPER TORSIONS         :   NULL ;   NULL ;  NULL               
REMARK   3    PSEUDOROTATION ANGLES     :   NULL ;   NULL ;  NULL               
REMARK   3    CHIRAL IMPROPER TORSION   :    338 ;   5.00 ;  SEMIHARMONIC       
REMARK   3    SUM OF OCCUPANCIES        :   NULL ;   NULL ;  NULL               
REMARK   3    UTILITY DISTANCES         :   NULL ;   NULL ;  NULL               
REMARK   3    UTILITY ANGLES            :   NULL ;   NULL ;  NULL               
REMARK   3    UTILITY TORSION           :   NULL ;   NULL ;  NULL               
REMARK   3    IDEAL-DIST CONTACT TERM   :   3032 ;   4.00 ;  SEMIHARMONIC       
REMARK   3                                                                      
REMARK   3   RMS DEVIATIONS FROM IDEAL VALUES.                                  
REMARK   3   BOND LENGTHS                       (A) : 0.015                     
REMARK   3   BOND ANGLES                  (DEGREES) : 1.40                      
REMARK   3   PEPTIDE OMEGA TORSION ANGLES (DEGREES) : 5.54                      
REMARK   3   OTHER TORSION ANGLES         (DEGREES) : 14.46                     
REMARK   3                                                                      
REMARK   3   SIMILARITY.                                                        
REMARK   3    NCS.                                                              
REMARK   3     NCS METHOD: RESTRAINT LSSR (-AUTONCS)                            
REMARK   3    TARGET RESTRAINTS.                                                
REMARK   3     TARGET REPRESENTATION : NONE                                     
REMARK   3     TARGET STRUCTURE : NULL                                          
REMARK   3                                                                      
REMARK   3  TLS DETAILS.                                                        
REMARK   3   NUMBER OF TLS GROUPS  :            0                               
REMARK   3                                                                      
REMARK   3  REFINEMENT NOTES.                                                   
REMARK   3   NUMBER OF REFINEMENT NOTES :   1                                   
REMARK   3   NOTE   1 : IDEAL-DIST CONTACT TERM CONTACT SETUP. ALL ATOMS        
REMARK   3               HAVE CCP4 ATOM TYPE FROM LIBRARY                       
REMARK   3
REMARK   3  OTHER REFINEMENT REMARKS: NULL
REMARK   3
REMARK 290                                                            
REMARK 290 CRYSTALLOGRAPHIC SYMMETRY                                  
REMARK 290 SYMMETRY OPERATORS FOR SPACE GROUP: P 43                   
REMARK 290                                                            
REMARK 290      SYMOP   SYMMETRY                                      
REMARK 290     NNNMMM   OPERATOR                                      
REMARK 290       1555   X,Y,Z                                         
REMARK 290       2555   -X,-Y,1/2+Z                                   
REMARK 290       3555   -Y,X,3/4+Z                                    
REMARK 290       4555   Y,-X,1/4+Z                                    
REMARK 290                                                            
REMARK 290     WHERE NNN -> OPERATOR NUMBER                           
REMARK 290           MMM -> TRANSLATION VECTOR                        
REMARK 290                                                            
REMARK 290 CRYSTALLOGRAPHIC SYMMETRY TRANSFORMATIONS                  
REMARK 290 THE FOLLOWING TRANSFORMATIONS OPERATE ON THE ATOM/HETATM   
REMARK 290 RECORDS IN THIS ENTRY TO PRODUCE CRYSTALLOGRAPHICALLY      
REMARK 290 RELATED MOLECULES.                                         
REMARK 290   SMTRY1   1  1.000000  0.000000  0.000000        0.00000
REMARK 290   SMTRY2   1  0.000000  1.000000  0.000000        0.00000
REMARK 290   SMTRY3   1  0.000000  0.000000  1.000000        0.00000
REMARK 290   SMTRY1   2 -1.000000  0.000000  0.000000        0.00000
REMARK 290   SMTRY2   2  0.000000 -1.000000  0.000000        0.00000
REMARK 290   SMTRY3   2  0.000000  0.000000  1.000000       19.64150
REMARK 290   SMTRY1   3  0.000000 -1.000000  0.000000        0.00000
REMARK 290   SMTRY2   3  1.000000  0.000000  0.000000        0.00000
REMARK 290   SMTRY3   3  0.000000  0.000000  1.000000       29.46225
REMARK 290   SMTRY1   4  0.000000  1.000000  0.000000        0.00000
REMARK 290   SMTRY2   4 -1.000000  0.000000  0.000000        0.00000
REMARK 290   SMTRY3   4  0.000000  0.000000  1.000000        9.82075
REMARK 290                                                            
REMARK 290 REMARK: NULL                                               
REMARK 300
REMARK 300 BIOMOLECULE: 1, 2
REMARK 300 SEE REMARK 350 FOR THE AUTHOR PROVIDED AND/OR PROGRAM
REMARK 300 GENERATED ASSEMBLY INFORMATION FOR THE STRUCTURE IN
REMARK 300 THIS ENTRY. THE REMARK MAY ALSO  PROVIDE INFORMATION ON
REMARK 300 BURIED SURFACE AREA.
REMARK 350
REMARK 350 COORDINATES FOR A COMPLETE MULTIMER REPRESENTING THE KNOWN
REMARK 350 BIOLOGICALLY SIGNIFICANT OLIGOMERIZATION STATE OF THE
REMARK 350 MOLECULE CAN BE GENERATED BY APPLYING BIOMT TRANSFORMATIONS
REMARK 350 GIVEN BELOW. BOTH NON-CRYSTALLOGRAPHIC AND
REMARK 350 CRYSTALLOGRAPHIC OPERATIONS ARE GIVEN.
REMARK 350
REMARK 350 BIOMOLECULE: 1
REMARK 350 SOFTWARE DETERMINED QUATERNARY STRUCTURE: MONOMERIC
REMARK 350 SOFTWARE USED: PISA
REMARK 350 SURFACE AREA OF THE MONOMER: 7722 ANGSTROM**2
REMARK 350 FREE ENERGY OF FOLDING: -156.0 KCAL/MOL
REMARK 350 APPLY THE FOLLOWING TO CHAINS: A,W
REMARK 350   BIOMT1   1  1.000000  0.000000  0.000000        0.00000
REMARK 350   BIOMT2   1  0.000000  1.000000  0.000000        0.00000
REMARK 350   BIOMT3   1  0.000000  0.000000  1.000000        0.00000
REMARK 350
REMARK 350 BIOMOLECULE: 2
REMARK 350 SOFTWARE DETERMINED QUATERNARY STRUCTURE: MONOMERIC
REMARK 350 SOFTWARE USED: PISA
REMARK 350 SURFACE AREA OF THE MONOMER: 7998 ANGSTROM**2
REMARK 350 FREE ENERGY OF FOLDING: -157.0 KCAL/MOL
REMARK 350 APPLY THE FOLLOWING TO CHAINS: B,W
REMARK 350   BIOMT1   1  1.000000  0.000000  0.000000        0.00000
REMARK 350   BIOMT2   1  0.000000  1.000000  0.000000        0.00000
REMARK 350   BIOMT3   1  0.000000  0.000000  1.000000        0.00000
CRYST1   88.743   88.743   39.283  90.00  90.00  90.00 P 43                     


$$$$
SARS2_Mac1A-A0144
  PyMOL3.0          3D                             0

 30 33  0  0  0  0  0  0  0  0999 V2000
   -0.7010   13.1030   -3.4320 N   0  0  0  0  0  0  0  0  0  0  0  0
   -1.2090    9.3710   -8.9530 C   0  0  0  0  0  0  0  0  0  0  0  0
    0.3310   11.0650   -2.6500 O   0  0  0  0  0  0  0  0  0  0  0  0
   -1.0280    9.7880   -7.5180 C   0  0  0  0  0  0  0  0  0  0  0  0
    1.5860    9.5190   -8.6540 N   0  0  0  0  0  0  0  0  0  0  0  0
   -2.1510   11.2670   -2.6910 O   0  0  0  0  0  0  0  0  0  0  0  0
   -2.0310    9.5250   -6.5930 C   0  0  0  0  0  0  0  0  0  0  0  0
    4.0340    8.1530  -11.1280 N   0  0  0  0  0  0  0  0  0  0  0  0
    1.8670   11.7420   -8.1150 O   0  0  0  0  0  0  0  0  0  0  0  0
   -1.9950   10.0350   -5.3090 C   0  0  0  0  0  0  0  0  0  0  0  0
    4.6210    9.2800  -13.1640 N   0  0  0  0  0  0  0  0  0  0  0  0
   -0.9250   10.8200   -4.9250 C   0  0  0  0  0  0  0  0  0  0  0  0
    4.2500   10.4130  -13.8390 N   0  0  0  0  0  0  0  0  0  0  0  0
   -1.3600   14.0890   -4.2130 C   0  0  0  0  0  0  0  0  0  0  0  0
   -2.6090   13.8970   -4.7820 C   0  0  0  0  0  0  0  0  0  0  0  0
   -3.2450   14.9270   -5.4630 C   0  0  0  0  0  0  0  0  0  0  0  0
   -2.6540   16.1490   -5.5740 C   0  0  0  0  0  0  0  0  0  0  0  0
   -1.3790   16.3560   -5.0490 C   0  0  0  0  0  0  0  0  0  0  0  0
   -0.7630   15.3150   -4.3980 C   0  0  0  0  0  0  0  0  0  0  0  0
    0.1200   11.0650   -5.8010 C   0  0  0  0  0  0  0  0  0  0  0  0
    0.0860   10.5340   -7.0930 C   0  0  0  0  0  0  0  0  0  0  0  0
    1.2920   10.6580   -7.9700 C   0  0  0  0  0  0  0  0  0  0  0  0
    2.3430    9.3610   -9.8350 C   0  0  0  0  0  0  0  0  0  0  0  0
    3.2500    8.3040  -10.0450 C   0  0  0  0  0  0  0  0  0  0  0  0
    3.8700    9.1040  -12.0560 C   0  0  0  0  0  0  0  0  0  0  0  0
    3.2620   10.9490  -13.1460 C   0  0  0  0  0  0  0  0  0  0  0  0
    2.9630   10.1760  -11.9960 C   0  0  0  0  0  0  0  0  0  0  0  0
    2.1870   10.3050  -10.8520 C   0  0  0  0  0  0  0  0  0  0  0  0
    0.5110   15.4470   -3.9710 F   0  0  0  0  0  0  0  0  0  0  0  0
   -0.8760   11.4970   -3.3020 S   0  0  0  0  0  0  0  0  0  0  0  0
  1 14  1  0  0  0  0
  2  4  1  0  0  0  0
  4  7  4  0  0  0  0
  5 23  1  0  0  0  0
  8 24  4  0  0  0  0
  9 22  2  0  0  0  0
  7 10  4  0  0  0  0
 11 25  4  0  0  0  0
 10 12  4  0  0  0  0
 12 30  1  0  0  0  0
 11 13  4  0  0  0  0
 14 15  4  0  0  0  0
 14 19  4  0  0  0  0
 15 16  4  0  0  0  0
 16 17  4  0  0  0  0
 17 18  4  0  0  0  0
 18 19  4  0  0  0  0
 19 29  1  0  0  0  0
 12 20  4  0  0  0  0
  4 21  4  0  0  0  0
 20 21  4  0  0  0  0
  5 22  1  0  0  0  0
 21 22  1  0  0  0  0
 23 24  4  0  0  0  0
 23 28  4  0  0  0  0
  8 25  4  0  0  0  0
 13 26  4  0  0  0  0
 25 27  4  0  0  0  0
 26 27  4  0  0  0  0
 27 28  4  0  0  0  0
  1 30  1  0  0  0  0
  3 30  2  0  0  0  0
  6 30  2  0  0  0  0
M  END
>  <pdb_header>
REMARK --------------------- added by autoBUSTER ---------------------------------START
REMARK run at   = Mon Mar 27 16:42:51 BST 2023
REMARK     in   = /dls/labxchem/data/lb32627/lb32627-1/processing/analysis/model_building/SARS2_Mac1A-A0144
REMARK     user = ill13029
REMARK     cmd  = \
REMARK            /dls_sw/apps/GPhL/BUSTER/20221121/autoBUSTER/bin/linux64/refine \
REMARK            -p \
REMARK            /dls/labxchem/data/lb32627/lb32627-1/processing/analysis/model_building/SARS2_Mac1A-A0144/cootOut/Refine_8/in.pdb \
REMARK            -m \
REMARK            /dls/labxchem/data/lb32627/lb32627-1/processing/analysis/model_building/SARS2_Mac1A-A0144/SARS2_Mac1A-A0144.free.mtz \
REMARK            -l \
REMARK            /dls/labxchem/data/lb32627/lb32627-1/processing/analysis/model_building/SARS2_Mac1A-A0144/ASAP-0000018-001.cif \
REMARK            -autoncs -M ADP -d Refine_8
REMARK Files used:
REMARK   PDB              = Refine_8/pdbchk.pdb
REMARK   MTZ              = /dls/labxchem/data/lb32627/lb32627-1/processing/analysis/model_building/SARS2_Mac1A-A0144/SARS2_Mac1A-A0144.free.mtz
REMARK output written to subdirectory = Refine_8
REMARK best refinement for F,SIGF with R/Rfree 0.2009/0.2396
REMARK header records are copied from input PDB file (apart from REMARK 3!)
REMARK --------------------- added by autoBUSTER -----------------------------------END
REMARK --------------------- added by autoBUSTER -------------------------------
REMARK run at   = Wed Dec 14 16:56:59 GMT 2022                                  
REMARK     in   = /dls/labxchem/data/lb32627/lb32627-1/processing/analysis/model
REMARK     user = ejx48977                                                      
REMARK     cmd  = \                                                             
REMARK            /dls_sw/apps/GPhL/BUSTER/20220608/autoBUSTER/bin/linux64/refin
REMARK            -p \                                                          
REMARK            /dls/labxchem/data/lb32627/lb32627-1/processing/analysis/model
REMARK            -m \                                                          
REMARK            /dls/labxchem/data/lb32627/lb32627-1/processing/analysis/model
REMARK            -l \                                                          
REMARK            /dls/labxchem/data/lb32627/lb32627-1/processing/analysis/model
REMARK            -autoncs -M ADP -B user -Gelly gelly.dat -d Refine_6          
REMARK Files used:                                                              
REMARK   PDB              = Refine_6/pdbchk.pdb                                 
REMARK   MTZ              = /dls/labxchem/data/lb32627/lb32627-1/processing/anal
REMARK   Gelly commands       = /dls/labxchem/data/lb32627/lb32627-1/processing/
REMARK output written to subdirectory = Refine_6                                
REMARK best refinement for F,SIGF with R/Rfree 0.2008/0.2395                    
REMARK header records are copied from input PDB file (apart from REMARK 3!)     
REMARK --------------------- added by autoBUSTER -------------------------------
REMARK --------------------- added by autoBUSTER -------------------------------
REMARK run at   = Wed Dec  7 16:27:13 GMT 2022                                  
REMARK     in   = /dls/labxchem/data/lb32627/lb32627-1/processing/analysis/model
REMARK     user = ill13029                                                      
REMARK     cmd  = \                                                             
REMARK            /dls_sw/apps/GPhL/BUSTER/20220608/autoBUSTER/bin/linux64/refin
REMARK            -p \                                                          
REMARK            /dls/labxchem/data/lb32627/lb32627-1/processing/analysis/model
REMARK            -m \                                                          
REMARK            /dls/labxchem/data/lb32627/lb32627-1/processing/analysis/model
REMARK            -l \                                                          
REMARK            /dls/labxchem/data/lb32627/lb32627-1/processing/analysis/model
REMARK            -autoncs -M ADP -d Refine_5                                   
REMARK Files used:                                                              
REMARK   PDB              = Refine_5/pdbchk.pdb                                 
REMARK   MTZ              = /dls/labxchem/data/lb32627/lb32627-1/processing/anal
REMARK output written to subdirectory = Refine_5                                
REMARK best refinement for F,SIGF with R/Rfree 0.2016/0.2399                    
REMARK header records are copied from input PDB file (apart from REMARK 3!)     
REMARK --------------------- added by autoBUSTER -------------------------------
REMARK --------------------- added by autoBUSTER -------------------------------
REMARK run at   = Wed Dec  7 11:28:25 GMT 2022                                  
REMARK     in   = /dls/labxchem/data/lb32627/lb32627-1/processing/analysis/model
REMARK     user = ill13029                                                      
REMARK     cmd  = \                                                             
REMARK            /dls_sw/apps/GPhL/BUSTER/20220608/autoBUSTER/bin/linux64/refin
REMARK            -p \                                                          
REMARK            /dls/labxchem/data/lb32627/lb32627-1/processing/analysis/model
REMARK            -m \                                                          
REMARK            /dls/labxchem/data/lb32627/lb32627-1/processing/analysis/model
REMARK            -l \                                                          
REMARK            /dls/labxchem/data/lb32627/lb32627-1/processing/analysis/model
REMARK            -autoncs -M ADP -d Refine_4                                   
REMARK Files used:                                                              
REMARK   PDB              = Refine_4/pdbchk.pdb                                 
REMARK   MTZ              = /dls/labxchem/data/lb32627/lb32627-1/processing/anal
REMARK output written to subdirectory = Refine_4                                
REMARK best refinement for F,SIGF with R/Rfree 0.2015/0.2401                    
REMARK header records are copied from input PDB file (apart from REMARK 3!)     
REMARK --------------------- added by autoBUSTER -------------------------------
REMARK --------------------- added by autoBUSTER -------------------------------
REMARK run at   = Tue Nov 29 10:15:53 GMT 2022                                  
REMARK     in   = /dls/labxchem/data/lb32627/lb32627-1/processing/analysis/model
REMARK     user = ill13029                                                      
REMARK     cmd  = \                                                             
REMARK            /dls_sw/apps/GPhL/BUSTER/20220608/autoBUSTER/bin/linux64/refin
REMARK            -p \                                                          
REMARK            /dls/labxchem/data/lb32627/lb32627-1/processing/analysis/model
REMARK            -m \                                                          
REMARK            /dls/labxchem/data/lb32627/lb32627-1/processing/analysis/model
REMARK            -l \                                                          
REMARK            /dls/labxchem/data/lb32627/lb32627-1/processing/analysis/model
REMARK            -autoncs -M TLSbasic -d Refine_3                              
REMARK Files used:                                                              
REMARK   PDB              = Refine_3/pdbchk.pdb                                 
REMARK   MTZ              = /dls/labxchem/data/lb32627/lb32627-1/processing/anal
REMARK output written to subdirectory = Refine_3                                
REMARK best refinement for F,SIGF with R/Rfree 0.2168/0.2375                    
REMARK header records are copied from input PDB file (apart from REMARK 3!)     
REMARK --------------------- added by autoBUSTER -------------------------------
HEADER    ----                                    18-MAY-20                     
TITLE     ---                                                                   
COMPND    ---                                                                   
EXPDTA    X-RAY DIFFRACTION
REMARK   2                                                            
REMARK   2 RESOLUTION.    1.12 ANGSTROMS.
REMARK   3
REMARK   3 REFINEMENT.
REMARK   3   PROGRAM     : BUSTER 2.10.4 (21-NOV-2022)
REMARK   3   AUTHORS     : BRICOGNE,BLANC,BRANDL,FLENSBURG,KELLER,
REMARK   3               : PACIOREK,ROVERSI,SHARFF,SMART,VONRHEIN,WOMACK;
REMARK   3               : MATTHEWS,TEN EYCK,TRONRUD
REMARK   3
REMARK   3  DATA USED IN REFINEMENT.
REMARK   3   RESOLUTION RANGE HIGH (ANGSTROMS) : 1.119
REMARK   3   RESOLUTION RANGE LOW  (ANGSTROMS) : 62.74
REMARK   3   DATA CUTOFF            (SIGMA(F)) : 0.000
REMARK   3   COMPLETENESS FOR RANGE        (%) : 79.7
REMARK   3   NUMBER OF REFLECTIONS             : 94195
REMARK   3
REMARK   3  FIT TO DATA USED IN REFINEMENT.
REMARK   3   CROSS-VALIDATION METHOD          : THROUGHOUT
REMARK   3   FREE R VALUE TEST SET SELECTION  : RANDOM
REMARK   3   R VALUE     (WORKING + TEST SET) : 0.2028
REMARK   3   R VALUE            (WORKING SET) : 0.2009
REMARK   3   FREE R VALUE                     : 0.2396
REMARK   3   FREE R VALUE TEST SET SIZE   (%) : 5.080
REMARK   3   FREE R VALUE TEST SET COUNT      : 4784
REMARK   3   ESTIMATED ERROR OF FREE R VALUE  : NULL
REMARK   3
REMARK   3  FIT IN THE HIGHEST RESOLUTION BIN.
REMARK   3   TOTAL NUMBER OF BINS USED           : 51
REMARK   3   BIN RESOLUTION RANGE HIGH       (A) : 1.12
REMARK   3   BIN RESOLUTION RANGE LOW        (A) : 1.20
REMARK   3   BIN COMPLETENESS (WORKING+TEST) (%) : 8.34
REMARK   3   REFLECTIONS IN BIN   (WORKING+TEST) : 1884
REMARK   3   BIN R VALUE          (WORKING+TEST) : 0.4715
REMARK   3   REFLECTIONS IN BIN    (WORKING SET) : 1800
REMARK   3   BIN R VALUE           (WORKING SET) : 0.4709
REMARK   3   BIN FREE R VALUE                    : 0.4841
REMARK   3   BIN FREE R VALUE TEST SET SIZE  (%) : 4.46
REMARK   3   BIN FREE R VALUE TEST SET COUNT     : 84
REMARK   3   ESTIMATED ERROR OF BIN FREE R VALUE : NULL
REMARK   3
REMARK   3  NUMBER OF NON-HYDROGEN ATOMS USED IN REFINEMENT.
REMARK   3   PROTEIN ATOMS            : 2518
REMARK   3   NUCLEIC ACID ATOMS       : 0
REMARK   3   HETEROGEN ATOMS          : 34
REMARK   3   SOLVENT ATOMS            : 421
REMARK   3
REMARK   3  B VALUES.
REMARK   3   FROM WILSON PLOT           (A**2) : 14.25
REMARK   3   MEAN B VALUE      (OVERALL, A**2) : 23.90
REMARK   3   OVERALL ANISOTROPIC B VALUE.
REMARK   3    B11 (A**2) : 3.42320
REMARK   3    B22 (A**2) : 3.42320
REMARK   3    B33 (A**2) : -6.84650
REMARK   3    B12 (A**2) : 0.00000
REMARK   3    B13 (A**2) : 0.00000
REMARK   3    B23 (A**2) : 0.00000
REMARK   3
REMARK   3  ESTIMATED COORDINATE ERROR.
REMARK   3   ESD FROM LUZZATI PLOT                    (A) : 0.25
REMARK   3   DPI (BLOW EQ-10) BASED ON R VALUE        (A) : 0.049
REMARK   3   DPI (BLOW EQ-9) BASED ON FREE R VALUE    (A) : 0.054
REMARK   3   DPI (CRUICKSHANK) BASED ON R VALUE       (A) : 0.046
REMARK   3   DPI (CRUICKSHANK) BASED ON FREE R VALUE  (A) : 0.052
REMARK   3
REMARK   3   REFERENCES: BLOW, D. (2002) ACTA CRYST D58, 792-797
REMARK   3               CRUICKSHANK, D.W.J. (1999) ACTA CRYST D55, 583-601
REMARK   3
REMARK   3  CORRELATION COEFFICIENTS.
REMARK   3   CORRELATION COEFFICIENT FO-FC      : 0.946
REMARK   3   CORRELATION COEFFICIENT FO-FC FREE : 0.939
REMARK   3
REMARK   3  X-RAY WEIGHT : 6.69
REMARK   3
REMARK   3  GEOMETRY FUNCTION.                                                  
REMARK   3   RESTRAINT LIBRARIES.                                               
REMARK   3    NUMBER OF LIBRARIES USED :   9                                    
REMARK   3    LIBRARY  1 : protgeo_eh99.dat (V1.6.4.20) 20220523  STANDARD      
REMARK   3                 AMINO ACID DICTIONARY. BONDS AND ANGLES FROM         
REMARK   3                 ENGH AND HUBER EH99. OTHER VALUES BASED ON           
REMARK   3                 PREVIOUS TNT OR TAKEN FROM CCP4. INCLUDES            
REMARK   3                 HYDROGEN ATOMS.                                      
REMARK   3    LIBRARY  2 : exoticaa.dat (V1.3.4.16) 20220523  COLLECTION        
REMARK   3                 OF NON-STANDARD AMINO ACIDS, MAINLY EH91             
REMARK   3                 WITHOUT IDEAL DISTANCE INFO                          
REMARK   3    LIBRARY  3 : nuclgeo.dat (V1.13.4.9) 20221011                     
REMARK   3    LIBRARY  4 : bcorrel.dat (V1.15.10.2) 20190616                    
REMARK   3    LIBRARY  5 : contact.dat (V1.15.12.10) 20191121                   
REMARK   3    LIBRARY  6 : idealdist_contact.dat (V1.3.4.13) 20220125           
REMARK   3                 IDEAL-DISTANCE CONTACT TERM DATA AS USED IN          
REMARK   3                 PROLSQ. VALUES USED HERE ARE BASED ON DATA           
REMARK   3                 HARVESTING OF PDB AS OF 20190109.                    
REMARK   3    LIBRARY  7 : restraints for LIG (unknown) from cif                
REMARK   3                 dictionary ASAP-0000018-001.cif; generated by        
REMARK   3                 GRADE 1.2.21 (Feb 03 2022) from SMILES               
REMARK   3                 Cc1ccc(S(=O)(=O)Nc2ccccc2F)cc1C(=O)Nc1cnc2[nH]nc     
REMARK   3                 c2c1 using MOGUL 1.8.5(274361), CSD as541be,         
REMARK   3                 with quantum mechanics RM1                           
REMARK   3    LIBRARY  8 : restraints for DMS (DIMETHYL SULFOXIDE) from         
REMARK   3                 cif dictionary DMS.cif; generated by grade2          
REMARK   3                 version 1.1.0a7 from                                 
REMARK   3                 PDB_chemical_components_definition_file              
REMARK   3                 ftp://ftp.ebi.ac.uk/pub/databases/msd/pdbechem_v     
REMARK   3                 2/D/DMS/DMS.cif using RDKit 2021.03.4                
REMARK   3                 ((DatabaseID PDB-DMS))                               
REMARK   3    LIBRARY  9 : assume.dat (V1.9.4.3) 20221011                       
REMARK   3                                                                      
REMARK   3   NUMBER OF GEOMETRIC FUNCTION TERMS DEFINED : 15                    
REMARK   3   TERM                          COUNT    WEIGHT   FUNCTION.          
REMARK   3    BOND LENGTHS              :   2632 ;   2.00 ;  HARMONIC           
REMARK   3    BOND ANGLES               :   3586 ;   2.00 ;  HARMONIC           
REMARK   3    TORSION ANGLES            :    891 ;   2.00 ;  SINUSOIDAL         
REMARK   3    TRIGONAL CARBON PLANES    :   NULL ;   NULL ;  NULL               
REMARK   3    GENERAL PLANES            :    482 ;   5.00 ;  HARMONIC           
REMARK   3    ISOTROPIC THERMAL FACTORS :   2596 ;  10.00 ;  HARMONIC           
REMARK   3    BAD NON-BONDED CONTACTS   :   NULL ;   NULL ;  NULL               
REMARK   3    IMPROPER TORSIONS         :   NULL ;   NULL ;  NULL               
REMARK   3    PSEUDOROTATION ANGLES     :   NULL ;   NULL ;  NULL               
REMARK   3    CHIRAL IMPROPER TORSION   :    336 ;   5.00 ;  SEMIHARMONIC       
REMARK   3    SUM OF OCCUPANCIES        :   NULL ;   NULL ;  NULL               
REMARK   3    UTILITY DISTANCES         :   NULL ;   NULL ;  NULL               
REMARK   3    UTILITY ANGLES            :   NULL ;   NULL ;  NULL               
REMARK   3    UTILITY TORSION           :   NULL ;   NULL ;  NULL               
REMARK   3    IDEAL-DIST CONTACT TERM   :   2930 ;   4.00 ;  SEMIHARMONIC       
REMARK   3                                                                      
REMARK   3   RMS DEVIATIONS FROM IDEAL VALUES.                                  
REMARK   3   BOND LENGTHS                       (A) : 0.014                     
REMARK   3   BOND ANGLES                  (DEGREES) : 1.24                      
REMARK   3   PEPTIDE OMEGA TORSION ANGLES (DEGREES) : 4.69                      
REMARK   3   OTHER TORSION ANGLES         (DEGREES) : 14.70                     
REMARK   3                                                                      
REMARK   3   SIMILARITY.                                                        
REMARK   3    NCS.                                                              
REMARK   3     NCS METHOD: RESTRAINT LSSR (-AUTONCS)                            
REMARK   3    TARGET RESTRAINTS.                                                
REMARK   3     TARGET REPRESENTATION : NONE                                     
REMARK   3     TARGET STRUCTURE : NULL                                          
REMARK   3                                                                      
REMARK   3  TLS DETAILS.                                                        
REMARK   3   NUMBER OF TLS GROUPS  :            0                               
REMARK   3                                                                      
REMARK   3  REFINEMENT NOTES.                                                   
REMARK   3   NUMBER OF REFINEMENT NOTES :   1                                   
REMARK   3   NOTE   1 : IDEAL-DIST CONTACT TERM CONTACT SETUP. ALL ATOMS        
REMARK   3               HAVE CCP4 ATOM TYPE FROM LIBRARY                       
REMARK   3
REMARK   3  OTHER REFINEMENT REMARKS: NULL
REMARK   3
REMARK 290                                                            
REMARK 290 CRYSTALLOGRAPHIC SYMMETRY                                  
REMARK 290 SYMMETRY OPERATORS FOR SPACE GROUP: P 43                   
REMARK 290                                                            
REMARK 290      SYMOP   SYMMETRY                                      
REMARK 290     NNNMMM   OPERATOR                                      
REMARK 290       1555   X,Y,Z                                         
REMARK 290       2555   -X,-Y,1/2+Z                                   
REMARK 290       3555   -Y,X,3/4+Z                                    
REMARK 290       4555   Y,-X,1/4+Z                                    
REMARK 290                                                            
REMARK 290     WHERE NNN -> OPERATOR NUMBER                           
REMARK 290           MMM -> TRANSLATION VECTOR                        
REMARK 290                                                            
REMARK 290 CRYSTALLOGRAPHIC SYMMETRY TRANSFORMATIONS                  
REMARK 290 THE FOLLOWING TRANSFORMATIONS OPERATE ON THE ATOM/HETATM   
REMARK 290 RECORDS IN THIS ENTRY TO PRODUCE CRYSTALLOGRAPHICALLY      
REMARK 290 RELATED MOLECULES.                                         
REMARK 290   SMTRY1   1  1.000000  0.000000  0.000000        0.00000
REMARK 290   SMTRY2   1  0.000000  1.000000  0.000000        0.00000
REMARK 290   SMTRY3   1  0.000000  0.000000  1.000000        0.00000
REMARK 290   SMTRY1   2 -1.000000  0.000000  0.000000        0.00000
REMARK 290   SMTRY2   2  0.000000 -1.000000  0.000000        0.00000
REMARK 290   SMTRY3   2  0.000000  0.000000  1.000000       19.67200
REMARK 290   SMTRY1   3  0.000000 -1.000000  0.000000        0.00000
REMARK 290   SMTRY2   3  1.000000  0.000000  0.000000        0.00000
REMARK 290   SMTRY3   3  0.000000  0.000000  1.000000       29.50800
REMARK 290   SMTRY1   4  0.000000  1.000000  0.000000        0.00000
REMARK 290   SMTRY2   4 -1.000000  0.000000  0.000000        0.00000
REMARK 290   SMTRY3   4  0.000000  0.000000  1.000000        9.83600
REMARK 290                                                            
REMARK 290 REMARK: NULL                                               
CRYST1   88.733   88.733   39.344  90.00  90.00  90.00 P 43           


$$$$
SARS2_Mac1A-A0173
  PyMOL3.0          3D                             0

 22 25  0  0  0  0  0  0  0  0999 V2000
   -2.3390   10.5490   -5.0330 N   0  0  0  0  0  0  0  0  0  0  0  0
    0.0150    8.7100   -8.0480 C   0  0  0  0  0  0  0  0  0  0  0  0
   -0.8880    9.3610   -7.0400 C   0  0  0  0  0  0  0  0  0  0  0  0
   -0.3830   14.0400   -2.6400 N   0  0  0  0  0  0  0  0  0  0  0  0
   -2.0840    8.7880   -6.6300 C   0  0  0  0  0  0  0  0  0  0  0  0
    0.2840   14.0180   -0.5110 N   0  0  0  0  0  0  0  0  0  0  0  0
   -2.7710    9.4220   -5.6090 C   0  0  0  0  0  0  0  0  0  0  0  0
   -0.9270   14.9190    1.4110 N   0  0  0  0  0  0  0  0  0  0  0  0
   -1.2040   11.0620   -5.5340 C   0  0  0  0  0  0  0  0  0  0  0  0
   -3.1350   15.7180    0.8620 N   0  0  0  0  0  0  0  0  0  0  0  0
   -0.6520   12.3220   -4.9120 C   0  0  0  0  0  0  0  0  0  0  0  0
   -0.4600   10.5230   -6.5200 N   0  0  0  0  0  0  0  0  0  0  0  0
   -1.7550   13.3030   -4.4770 C   0  0  0  0  0  0  0  0  0  0  0  0
   -1.1310   14.5090   -3.8060 C   0  0  0  0  0  0  0  0  0  0  0  0
   -0.6650   14.3630   -1.3460 C   0  0  0  0  0  0  0  0  0  0  0  0
    0.1210   14.3570    0.7930 C   0  0  0  0  0  0  0  0  0  0  0  0
   -1.9100   15.1930    0.5490 C   0  0  0  0  0  0  0  0  0  0  0  0
   -3.8700   15.8020   -0.2960 C   0  0  0  0  0  0  0  0  0  0  0  0
   -3.1500   15.3480   -1.3540 C   0  0  0  0  0  0  0  0  0  0  0  0
   -1.8680   14.9610   -0.8430 C   0  0  0  0  0  0  0  0  0  0  0  0
    0.7360   13.1520   -2.9860 C   0  0  0  0  0  0  0  0  0  0  0  0
    0.2090   11.9310   -3.7000 C   0  0  0  0  0  0  0  0  0  0  0  0
  1  7  4  0  0  0  0
  2  3  1  0  0  0  0
  3  5  4  0  0  0  0
  3 12  4  0  0  0  0
  4 14  1  0  0  0  0
  4 15  1  0  0  0  0
  5  7  4  0  0  0  0
  8 16  4  0  0  0  0
  1  9  4  0  0  0  0
  9 11  1  0  0  0  0
 10 17  4  0  0  0  0
 11 13  1  0  0  0  0
 11 22  1  0  0  0  0
  9 12  4  0  0  0  0
 13 14  1  0  0  0  0
  6 15  4  0  0  0  0
 15 20  4  0  0  0  0
  6 16  4  0  0  0  0
  8 17  4  0  0  0  0
 10 18  4  0  0  0  0
 18 19  4  0  0  0  0
 17 20  4  0  0  0  0
 19 20  4  0  0  0  0
  4 21  1  0  0  0  0
 21 22  1  0  0  0  0
M  END
>  <pdb_header>
REMARK --------------------- added by autoBUSTER ---------------------------------START
REMARK run at   = Mon Mar 27 16:43:01 BST 2023
REMARK     in   = /dls/labxchem/data/lb32627/lb32627-1/processing/analysis/model_building/SARS2_Mac1A-A0173
REMARK     user = ill13029
REMARK     cmd  = \
REMARK            /dls_sw/apps/GPhL/BUSTER/20221121/autoBUSTER/bin/linux64/refine \
REMARK            -p \
REMARK            /dls/labxchem/data/lb32627/lb32627-1/processing/analysis/model_building/SARS2_Mac1A-A0173/cootOut/Refine_11/in.pdb \
REMARK            -m \
REMARK            /dls/labxchem/data/lb32627/lb32627-1/processing/analysis/model_building/SARS2_Mac1A-A0173/SARS2_Mac1A-A0173.free.mtz \
REMARK            -l \
REMARK            /dls/labxchem/data/lb32627/lb32627-1/processing/analysis/model_building/SARS2_Mac1A-A0173/ASAP-0000050-002.cif \
REMARK            -autoncs -M ADP -d Refine_11
REMARK Files used:
REMARK   PDB              = Refine_11/pdbchk.pdb
REMARK   MTZ              = /dls/labxchem/data/lb32627/lb32627-1/processing/analysis/model_building/SARS2_Mac1A-A0173/SARS2_Mac1A-A0173.free.mtz
REMARK output written to subdirectory = Refine_11
REMARK best refinement for F,SIGF with R/Rfree 0.1583/0.1796
REMARK header records are copied from input PDB file (apart from REMARK 3!)
REMARK --------------------- added by autoBUSTER -----------------------------------END
REMARK --------------------- added by autoBUSTER -------------------------------
REMARK run at   = Wed Dec  7 17:36:41 GMT 2022                                  
REMARK     in   = /dls/labxchem/data/lb32627/lb32627-1/processing/analysis/model
REMARK     user = ill13029                                                      
REMARK     cmd  = \                                                             
REMARK            /dls_sw/apps/GPhL/BUSTER/20220608/autoBUSTER/bin/linux64/refin
REMARK            -p \                                                          
REMARK            /dls/labxchem/data/lb32627/lb32627-1/processing/analysis/model
REMARK            -m \                                                          
REMARK            /dls/labxchem/data/lb32627/lb32627-1/processing/analysis/model
REMARK            -l \                                                          
REMARK            /dls/labxchem/data/lb32627/lb32627-1/processing/analysis/model
REMARK            -autoncs -M ADP -B user -Gelly gelly.dat -d Refine_9          
REMARK Files used:                                                              
REMARK   PDB              = Refine_9/pdbchk.pdb                                 
REMARK   MTZ              = /dls/labxchem/data/lb32627/lb32627-1/processing/anal
REMARK   Gelly commands       = /dls/labxchem/data/lb32627/lb32627-1/processing/
REMARK output written to subdirectory = Refine_9                                
REMARK best refinement for F,SIGF with R/Rfree 0.1583/0.1797                    
REMARK header records are copied from input PDB file (apart from REMARK 3!)     
REMARK --------------------- added by autoBUSTER -------------------------------
REMARK --------------------- added by autoBUSTER -------------------------------
REMARK run at   = Wed Dec  7 16:30:40 GMT 2022                                  
REMARK     in   = /dls/labxchem/data/lb32627/lb32627-1/processing/analysis/model
REMARK     user = ill13029                                                      
REMARK     cmd  = \                                                             
REMARK            /dls_sw/apps/GPhL/BUSTER/20220608/autoBUSTER/bin/linux64/refin
REMARK            -p \                                                          
REMARK            /dls/labxchem/data/lb32627/lb32627-1/processing/analysis/model
REMARK            -m \                                                          
REMARK            /dls/labxchem/data/lb32627/lb32627-1/processing/analysis/model
REMARK            -l \                                                          
REMARK            /dls/labxchem/data/lb32627/lb32627-1/processing/analysis/model
REMARK            -autoncs -M ADP -B user -Gelly gelly.dat -d Refine_8          
REMARK Files used:                                                              
REMARK   PDB              = Refine_8/pdbchk.pdb                                 
REMARK   MTZ              = /dls/labxchem/data/lb32627/lb32627-1/processing/anal
REMARK   Gelly commands       = /dls/labxchem/data/lb32627/lb32627-1/processing/
REMARK output written to subdirectory = Refine_8                                
REMARK best refinement for F,SIGF with R/Rfree 0.1584/0.1797                    
REMARK header records are copied from input PDB file (apart from REMARK 3!)     
REMARK --------------------- added by autoBUSTER -------------------------------
REMARK --------------------- added by autoBUSTER -------------------------------
REMARK run at   = Wed Dec  7 11:33:31 GMT 2022                                  
REMARK     in   = /dls/labxchem/data/lb32627/lb32627-1/processing/analysis/model
REMARK     user = ill13029                                                      
REMARK     cmd  = \                                                             
REMARK            /dls_sw/apps/GPhL/BUSTER/20220608/autoBUSTER/bin/linux64/refin
REMARK            -p \                                                          
REMARK            /dls/labxchem/data/lb32627/lb32627-1/processing/analysis/model
REMARK            -m \                                                          
REMARK            /dls/labxchem/data/lb32627/lb32627-1/processing/analysis/model
REMARK            -l \                                                          
REMARK            /dls/labxchem/data/lb32627/lb32627-1/processing/analysis/model
REMARK            -autoncs -M ADP -d Refine_7                                   
REMARK Files used:                                                              
REMARK   PDB              = Refine_7/pdbchk.pdb                                 
REMARK   MTZ              = /dls/labxchem/data/lb32627/lb32627-1/processing/anal
REMARK output written to subdirectory = Refine_7                                
REMARK best refinement for F,SIGF with R/Rfree 0.1592/0.1797                    
REMARK header records are copied from input PDB file (apart from REMARK 3!)     
REMARK --------------------- added by autoBUSTER -------------------------------
REMARK --------------------- added by autoBUSTER -------------------------------
REMARK run at   = Tue Nov 29 10:15:59 GMT 2022                                  
REMARK     in   = /dls/labxchem/data/lb32627/lb32627-1/processing/analysis/model
REMARK     user = ill13029                                                      
REMARK     cmd  = \                                                             
REMARK            /dls_sw/apps/GPhL/BUSTER/20220608/autoBUSTER/bin/linux64/refin
REMARK            -p \                                                          
REMARK            /dls/labxchem/data/lb32627/lb32627-1/processing/analysis/model
REMARK            -m \                                                          
REMARK            /dls/labxchem/data/lb32627/lb32627-1/processing/analysis/model
REMARK            -l \                                                          
REMARK            /dls/labxchem/data/lb32627/lb32627-1/processing/analysis/model
REMARK            -autoncs -M TLSbasic -d Refine_6                              
REMARK Files used:                                                              
REMARK   PDB              = Refine_6/pdbchk.pdb                                 
REMARK   MTZ              = /dls/labxchem/data/lb32627/lb32627-1/processing/anal
REMARK output written to subdirectory = Refine_6                                
REMARK best refinement for F,SIGF with R/Rfree 0.1910/0.2081                    
REMARK header records are copied from input PDB file (apart from REMARK 3!)     
REMARK --------------------- added by autoBUSTER -------------------------------
HEADER    ----                                    18-MAY-20                     
TITLE     ---                                                                   
COMPND    ---                                                                   
EXPDTA    X-RAY DIFFRACTION
REMARK   2                                                            
REMARK   2 RESOLUTION.    1.05 ANGSTROMS.
REMARK   3
REMARK   3 REFINEMENT.
REMARK   3   PROGRAM     : BUSTER 2.10.4 (21-NOV-2022)
REMARK   3   AUTHORS     : BRICOGNE,BLANC,BRANDL,FLENSBURG,KELLER,
REMARK   3               : PACIOREK,ROVERSI,SHARFF,SMART,VONRHEIN,WOMACK;
REMARK   3               : MATTHEWS,TEN EYCK,TRONRUD
REMARK   3
REMARK   3  DATA USED IN REFINEMENT.
REMARK   3   RESOLUTION RANGE HIGH (ANGSTROMS) : 1.054
REMARK   3   RESOLUTION RANGE LOW  (ANGSTROMS) : 62.69
REMARK   3   DATA CUTOFF            (SIGMA(F)) : 0.000
REMARK   3   COMPLETENESS FOR RANGE        (%) : 84.8
REMARK   3   NUMBER OF REFLECTIONS             : 118515
REMARK   3
REMARK   3  FIT TO DATA USED IN REFINEMENT.
REMARK   3   CROSS-VALIDATION METHOD          : THROUGHOUT
REMARK   3   FREE R VALUE TEST SET SELECTION  : RANDOM
REMARK   3   R VALUE     (WORKING + TEST SET) : 0.1593
REMARK   3   R VALUE            (WORKING SET) : 0.1583
REMARK   3   FREE R VALUE                     : 0.1796
REMARK   3   FREE R VALUE TEST SET SIZE   (%) : 5.020
REMARK   3   FREE R VALUE TEST SET COUNT      : 5950
REMARK   3   ESTIMATED ERROR OF FREE R VALUE  : NULL
REMARK   3
REMARK   3  FIT IN THE HIGHEST RESOLUTION BIN.
REMARK   3   TOTAL NUMBER OF BINS USED           : 51
REMARK   3   BIN RESOLUTION RANGE HIGH       (A) : 1.05
REMARK   3   BIN RESOLUTION RANGE LOW        (A) : 1.09
REMARK   3   BIN COMPLETENESS (WORKING+TEST) (%) : 18.31
REMARK   3   REFLECTIONS IN BIN   (WORKING+TEST) : 2371
REMARK   3   BIN R VALUE          (WORKING+TEST) : 0.3944
REMARK   3   REFLECTIONS IN BIN    (WORKING SET) : 2269
REMARK   3   BIN R VALUE           (WORKING SET) : 0.3955
REMARK   3   BIN FREE R VALUE                    : 0.3710
REMARK   3   BIN FREE R VALUE TEST SET SIZE  (%) : 4.30
REMARK   3   BIN FREE R VALUE TEST SET COUNT     : 102
REMARK   3   ESTIMATED ERROR OF BIN FREE R VALUE : NULL
REMARK   3
REMARK   3  NUMBER OF NON-HYDROGEN ATOMS USED IN REFINEMENT.
REMARK   3   PROTEIN ATOMS            : 2518
REMARK   3   NUCLEIC ACID ATOMS       : 0
REMARK   3   HETEROGEN ATOMS          : 22
REMARK   3   SOLVENT ATOMS            : 434
REMARK   3
REMARK   3  B VALUES.
REMARK   3   FROM WILSON PLOT           (A**2) : 9.71
REMARK   3   MEAN B VALUE      (OVERALL, A**2) : 16.81
REMARK   3   OVERALL ANISOTROPIC B VALUE.
REMARK   3    B11 (A**2) : 2.35790
REMARK   3    B22 (A**2) : 2.35790
REMARK   3    B33 (A**2) : -4.71590
REMARK   3    B12 (A**2) : 0.00000
REMARK   3    B13 (A**2) : 0.00000
REMARK   3    B23 (A**2) : 0.00000
REMARK   3
REMARK   3  ESTIMATED COORDINATE ERROR.
REMARK   3   ESD FROM LUZZATI PLOT                    (A) : 0.12
REMARK   3   DPI (BLOW EQ-10) BASED ON R VALUE        (A) : 0.031
REMARK   3   DPI (BLOW EQ-9) BASED ON FREE R VALUE    (A) : 0.033
REMARK   3   DPI (CRUICKSHANK) BASED ON R VALUE       (A) : 0.030
REMARK   3   DPI (CRUICKSHANK) BASED ON FREE R VALUE  (A) : 0.032
REMARK   3
REMARK   3   REFERENCES: BLOW, D. (2002) ACTA CRYST D58, 792-797
REMARK   3               CRUICKSHANK, D.W.J. (1999) ACTA CRYST D55, 583-601
REMARK   3
REMARK   3  CORRELATION COEFFICIENTS.
REMARK   3   CORRELATION COEFFICIENT FO-FC      : 0.945
REMARK   3   CORRELATION COEFFICIENT FO-FC FREE : 0.937
REMARK   3
REMARK   3  X-RAY WEIGHT : 6.34
REMARK   3
REMARK   3  GEOMETRY FUNCTION.                                                  
REMARK   3   RESTRAINT LIBRARIES.                                               
REMARK   3    NUMBER OF LIBRARIES USED :   8                                    
REMARK   3    LIBRARY  1 : protgeo_eh99.dat (V1.6.4.20) 20220523  STANDARD      
REMARK   3                 AMINO ACID DICTIONARY. BONDS AND ANGLES FROM         
REMARK   3                 ENGH AND HUBER EH99. OTHER VALUES BASED ON           
REMARK   3                 PREVIOUS TNT OR TAKEN FROM CCP4. INCLUDES            
REMARK   3                 HYDROGEN ATOMS.                                      
REMARK   3    LIBRARY  2 : exoticaa.dat (V1.3.4.16) 20220523  COLLECTION        
REMARK   3                 OF NON-STANDARD AMINO ACIDS, MAINLY EH91             
REMARK   3                 WITHOUT IDEAL DISTANCE INFO                          
REMARK   3    LIBRARY  3 : nuclgeo.dat (V1.13.4.9) 20221011                     
REMARK   3    LIBRARY  4 : bcorrel.dat (V1.15.10.2) 20190616                    
REMARK   3    LIBRARY  5 : contact.dat (V1.15.12.10) 20191121                   
REMARK   3    LIBRARY  6 : idealdist_contact.dat (V1.3.4.13) 20220125           
REMARK   3                 IDEAL-DISTANCE CONTACT TERM DATA AS USED IN          
REMARK   3                 PROLSQ. VALUES USED HERE ARE BASED ON DATA           
REMARK   3                 HARVESTING OF PDB AS OF 20190109.                    
REMARK   3    LIBRARY  7 : restraints for LIG (unknown) from cif                
REMARK   3                 dictionary ASAP-0000050-002.cif; generated by        
REMARK   3                 GRADE 1.2.21 (Feb 03 2022) from SMILES               
REMARK   3                 Cc1ccnc(C2CCN(c3ncnc4[nH]ccc34)CC2)n1 using          
REMARK   3                 MOGUL 1.8.5(274361), CSD as541be, with quantum       
REMARK   3                 mechanics RM1                                        
REMARK   3    LIBRARY  8 : assume.dat (V1.9.4.3) 20221011                       
REMARK   3                                                                      
REMARK   3   NUMBER OF GEOMETRIC FUNCTION TERMS DEFINED : 15                    
REMARK   3   TERM                          COUNT    WEIGHT   FUNCTION.          
REMARK   3    BOND LENGTHS              :   2621 ;   2.00 ;  HARMONIC           
REMARK   3    BOND ANGLES               :   3570 ;   2.00 ;  HARMONIC           
REMARK   3    TORSION ANGLES            :    893 ;   2.00 ;  SINUSOIDAL         
REMARK   3    TRIGONAL CARBON PLANES    :   NULL ;   NULL ;  NULL               
REMARK   3    GENERAL PLANES            :    470 ;   5.00 ;  HARMONIC           
REMARK   3    ISOTROPIC THERMAL FACTORS :   2596 ;  10.00 ;  HARMONIC           
REMARK   3    BAD NON-BONDED CONTACTS   :   NULL ;   NULL ;  NULL               
REMARK   3    IMPROPER TORSIONS         :   NULL ;   NULL ;  NULL               
REMARK   3    PSEUDOROTATION ANGLES     :   NULL ;   NULL ;  NULL               
REMARK   3    CHIRAL IMPROPER TORSION   :    336 ;   5.00 ;  SEMIHARMONIC       
REMARK   3    SUM OF OCCUPANCIES        :   NULL ;   NULL ;  NULL               
REMARK   3    UTILITY DISTANCES         :   NULL ;   NULL ;  NULL               
REMARK   3    UTILITY ANGLES            :   NULL ;   NULL ;  NULL               
REMARK   3    UTILITY TORSION           :   NULL ;   NULL ;  NULL               
REMARK   3    IDEAL-DIST CONTACT TERM   :   2936 ;   4.00 ;  SEMIHARMONIC       
REMARK   3                                                                      
REMARK   3   RMS DEVIATIONS FROM IDEAL VALUES.                                  
REMARK   3   BOND LENGTHS                       (A) : 0.015                     
REMARK   3   BOND ANGLES                  (DEGREES) : 1.37                      
REMARK   3   PEPTIDE OMEGA TORSION ANGLES (DEGREES) : 5.80                      
REMARK   3   OTHER TORSION ANGLES         (DEGREES) : 14.35                     
REMARK   3                                                                      
REMARK   3   SIMILARITY.                                                        
REMARK   3    NCS.                                                              
REMARK   3     NCS METHOD: RESTRAINT LSSR (-AUTONCS)                            
REMARK   3    TARGET RESTRAINTS.                                                
REMARK   3     TARGET REPRESENTATION : NONE                                     
REMARK   3     TARGET STRUCTURE : NULL                                          
REMARK   3                                                                      
REMARK   3  TLS DETAILS.                                                        
REMARK   3   NUMBER OF TLS GROUPS  :            0                               
REMARK   3                                                                      
REMARK   3  REFINEMENT NOTES.                                                   
REMARK   3   NUMBER OF REFINEMENT NOTES :   1                                   
REMARK   3   NOTE   1 : IDEAL-DIST CONTACT TERM CONTACT SETUP. ALL ATOMS        
REMARK   3               HAVE CCP4 ATOM TYPE FROM LIBRARY                       
REMARK   3
REMARK   3  OTHER REFINEMENT REMARKS: NULL
REMARK   3
REMARK 290                                                            
REMARK 290 CRYSTALLOGRAPHIC SYMMETRY                                  
REMARK 290 SYMMETRY OPERATORS FOR SPACE GROUP: P 43                   
REMARK 290                                                            
REMARK 290      SYMOP   SYMMETRY                                      
REMARK 290     NNNMMM   OPERATOR                                      
REMARK 290       1555   X,Y,Z                                         
REMARK 290       2555   -X,-Y,1/2+Z                                   
REMARK 290       3555   -Y,X,3/4+Z                                    
REMARK 290       4555   Y,-X,1/4+Z                                    
REMARK 290                                                            
REMARK 290     WHERE NNN -> OPERATOR NUMBER                           
REMARK 290           MMM -> TRANSLATION VECTOR                        
REMARK 290                                                            
REMARK 290 CRYSTALLOGRAPHIC SYMMETRY TRANSFORMATIONS                  
REMARK 290 THE FOLLOWING TRANSFORMATIONS OPERATE ON THE ATOM/HETATM   
REMARK 290 RECORDS IN THIS ENTRY TO PRODUCE CRYSTALLOGRAPHICALLY      
REMARK 290 RELATED MOLECULES.                                         
REMARK 290   SMTRY1   1  1.000000  0.000000  0.000000        0.00000
REMARK 290   SMTRY2   1  0.000000  1.000000  0.000000        0.00000
REMARK 290   SMTRY3   1  0.000000  0.000000  1.000000        0.00000
REMARK 290   SMTRY1   2 -1.000000  0.000000  0.000000        0.00000
REMARK 290   SMTRY2   2  0.000000 -1.000000  0.000000        0.00000
REMARK 290   SMTRY3   2  0.000000  0.000000  1.000000       19.50600
REMARK 290   SMTRY1   3  0.000000 -1.000000  0.000000        0.00000
REMARK 290   SMTRY2   3  1.000000  0.000000  0.000000        0.00000
REMARK 290   SMTRY3   3  0.000000  0.000000  1.000000       29.25900
REMARK 290   SMTRY1   4  0.000000  1.000000  0.000000        0.00000
REMARK 290   SMTRY2   4 -1.000000  0.000000  0.000000        0.00000
REMARK 290   SMTRY3   4  0.000000  0.000000  1.000000        9.75300
REMARK 290                                                            
REMARK 290 REMARK: NULL                                               
CRYST1   88.658   88.658   39.012  90.00  90.00  90.00 P 43           


$$$$
SARS2_Mac1A-A0225
  PyMOL3.0          3D                             0

 21 24  0  0  0  0  0  0  0  0999 V2000
   -1.0220   14.5420   -3.7560 N   0  0  0  0  0  0  0  0  0  0  0  0
    3.0290   12.5990   -4.7020 C   0  0  0  0  0  0  0  0  0  0  0  0
    1.6180   12.4200   -4.8300 O   0  0  0  0  0  0  0  0  0  0  0  0
    0.9500   13.1740   -3.8690 C   0  0  0  0  0  0  0  0  0  0  0  0
   -3.8940   15.4250   -3.8720 N   0  0  0  0  0  0  0  0  0  0  0  0
    0.2800   10.9810   -2.7420 O   0  0  0  0  0  0  0  0  0  0  0  0
    0.4970   12.1910   -2.7970 C   0  0  0  0  0  0  0  0  0  0  0  0
   -5.8250   15.3220   -2.4480 N   0  0  0  0  0  0  0  0  0  0  0  0
    0.9030   12.8380   -1.7850 O   0  0  0  0  0  0  0  0  0  0  0  0
   -0.2320   12.6350   -4.7610 C   0  0  0  0  0  0  0  0  0  0  0  0
   -5.3390   15.4070   -0.0870 N   0  0  0  0  0  0  0  0  0  0  0  0
   -0.9260   16.3990   -2.4780 O   0  0  0  0  0  0  0  0  0  0  0  0
   -1.5410   13.3280   -4.2950 C   0  0  0  0  0  0  0  0  0  0  0  0
   -1.5920   15.5220   -3.0300 C   0  0  0  0  0  0  0  0  0  0  0  0
   -3.0810   15.4660   -2.7960 C   0  0  0  0  0  0  0  0  0  0  0  0
   -5.2050   15.3770   -3.6240 C   0  0  0  0  0  0  0  0  0  0  0  0
   -4.9890   15.3860   -1.4040 C   0  0  0  0  0  0  0  0  0  0  0  0
   -4.1890   15.4900    0.6590 C   0  0  0  0  0  0  0  0  0  0  0  0
   -3.1040   15.5270   -0.1560 C   0  0  0  0  0  0  0  0  0  0  0  0
   -3.5940   15.4660   -1.4900 C   0  0  0  0  0  0  0  0  0  0  0  0
    0.3690   14.5530   -4.1700 C   0  0  0  0  0  0  0  0  0  0  0  0
  1 13  1  0  0  0  0
  1 21  1  0  0  0  0
  2  3  1  0  0  0  0
  3  4  1  0  0  0  0
  4  7  1  0  0  0  0
  6  7  1  0  0  0  0
  7  9  1  0  0  0  0
  8 16  4  0  0  0  0
  3 10  1  0  0  0  0
  4 10  1  0  0  0  0
 11 17  4  0  0  0  0
 12 14  2  0  0  0  0
 10 13  1  0  0  0  0
  1 14  1  0  0  0  0
 14 15  1  0  0  0  0
  5 15  4  0  0  0  0
 15 20  4  0  0  0  0
  5 16  4  0  0  0  0
  8 17  4  0  0  0  0
 11 18  4  0  0  0  0
 18 19  4  0  0  0  0
 17 20  4  0  0  0  0
 19 20  4  0  0  0  0
  4 21  1  0  0  0  0
M  END
>  <pdb_header>
HEADER    ----                                    18-MAY-20                     
TITLE     ---                                                                   
EXPDTA    X-RAY DIFFRACTION                                                     
REMARK --------------------- added by autoBUSTER ---------------------------------START
REMARK run at   = Mon Mar 27 16:43:06 BST 2023
REMARK     in   = /dls/labxchem/data/lb32627/lb32627-1/processing/analysis/model_building/SARS2_Mac1A-A0225
REMARK     user = ill13029
REMARK     cmd  = \
REMARK            /dls_sw/apps/GPhL/BUSTER/20221121/autoBUSTER/bin/linux64/refine \
REMARK            -p \
REMARK            /dls/labxchem/data/lb32627/lb32627-1/processing/analysis/model_building/SARS2_Mac1A-A0225/cootOut/Refi
REMARK            -m \
REMARK            /dls/labxchem/data/lb32627/lb32627-1/processing/analysis/model_building/SARS2_Mac1A-A0225/SARS2_Mac1A-
REMARK            -l \
REMARK            /dls/labxchem/data/lb32627/lb32627-1/processing/analysis/model_building/SARS2_Mac1A-A0225/ASAP-0000243
REMARK            -autoncs -M ADP -d Refine_10
REMARK Files used:
REMARK   PDB              = Refine_10/pdbchk.pdb
REMARK   MTZ              = /dls/labxchem/data/lb32627/lb32627-1/processing/analysis/model_building/SARS2_Mac1A-A0225/SA
REMARK output written to subdirectory = Refine_10
REMARK best refinement for F,SIGF with R/Rfree 0.1688/0.1926
REMARK header records are copied from input PDB file (apart from REMARK 3!)
REMARK --------------------- added by autoBUSTER -----------------------------------END
REMARK --------------------- added by autoBUSTER -------------------------------
REMARK run at   = Wed Dec  7 17:39:12 GMT 2022                                  
REMARK     in   = /dls/labxchem/data/lb32627/lb32627-1/processing/analysis/model
REMARK     user = ill13029                                                      
REMARK     cmd  = \                                                             
REMARK            /dls_sw/apps/GPhL/BUSTER/20220608/autoBUSTER/bin/linux64/refin
REMARK            -p \                                                          
REMARK            /dls/labxchem/data/lb32627/lb32627-1/processing/analysis/model
REMARK            -m \                                                          
REMARK            /dls/labxchem/data/lb32627/lb32627-1/processing/analysis/model
REMARK            -l \                                                          
REMARK            /dls/labxchem/data/lb32627/lb32627-1/processing/analysis/model
REMARK            -autoncs -M ADP -d Refine_8                                   
REMARK Files used:                                                              
REMARK   PDB              = Refine_8/pdbchk.pdb                                 
REMARK   MTZ              = /dls/labxchem/data/lb32627/lb32627-1/processing/anal
REMARK output written to subdirectory = Refine_8                                
REMARK best refinement for F,SIGF with R/Rfree 0.1685/0.1921                    
REMARK header records are copied from input PDB file (apart from REMARK 3!)     
REMARK --------------------- added by autoBUSTER -------------------------------
REMARK --------------------- added by autoBUSTER -------------------------------
REMARK run at   = Wed Dec  7 16:33:07 GMT 2022                                  
REMARK     in   = /dls/labxchem/data/lb32627/lb32627-1/processing/analysis/model
REMARK     user = ill13029                                                      
REMARK     cmd  = \                                                             
REMARK            /dls_sw/apps/GPhL/BUSTER/20220608/autoBUSTER/bin/linux64/refin
REMARK            -p \                                                          
REMARK            /dls/labxchem/data/lb32627/lb32627-1/processing/analysis/model
REMARK            -m \                                                          
REMARK            /dls/labxchem/data/lb32627/lb32627-1/processing/analysis/model
REMARK            -l \                                                          
REMARK            /dls/labxchem/data/lb32627/lb32627-1/processing/analysis/model
REMARK            -autoncs -M ADP -B user -Gelly gelly.dat -d Refine_7          
REMARK Files used:                                                              
REMARK   PDB              = Refine_7/pdbchk.pdb                                 
REMARK   MTZ              = /dls/labxchem/data/lb32627/lb32627-1/processing/anal
REMARK   Gelly commands       = /dls/labxchem/data/lb32627/lb32627-1/processing/
REMARK output written to subdirectory = Refine_7                                
REMARK best refinement for F,SIGF with R/Rfree 0.1688/0.1923                    
REMARK header records are copied from input PDB file (apart from REMARK 3!)     
REMARK --------------------- added by autoBUSTER -------------------------------
REMARK --------------------- added by autoBUSTER -------------------------------
REMARK run at   = Wed Dec  7 11:41:19 GMT 2022                                  
REMARK     in   = /dls/labxchem/data/lb32627/lb32627-1/processing/analysis/model
REMARK     user = ill13029                                                      
REMARK     cmd  = \                                                             
REMARK            /dls_sw/apps/GPhL/BUSTER/20220608/autoBUSTER/bin/linux64/refin
REMARK            -p \                                                          
REMARK            /dls/labxchem/data/lb32627/lb32627-1/processing/analysis/model
REMARK            -m \                                                          
REMARK            /dls/labxchem/data/lb32627/lb32627-1/processing/analysis/model
REMARK            -l \                                                          
REMARK            /dls/labxchem/data/lb32627/lb32627-1/processing/analysis/model
REMARK            -autoncs -M ADP -d Refine_6                                   
REMARK Files used:                                                              
REMARK   PDB              = Refine_6/pdbchk.pdb                                 
REMARK   MTZ              = /dls/labxchem/data/lb32627/lb32627-1/processing/anal
REMARK output written to subdirectory = Refine_6                                
REMARK best refinement for F,SIGF with R/Rfree 0.1693/0.1944                    
REMARK header records are copied from input PDB file (apart from REMARK 3!)     
REMARK --------------------- added by autoBUSTER -------------------------------
REMARK --------------------- added by autoBUSTER -------------------------------
REMARK run at   = Tue Nov 29 10:15:56 GMT 2022                                  
REMARK     in   = /dls/labxchem/data/lb32627/lb32627-1/processing/analysis/model
REMARK     user = ill13029                                                      
REMARK     cmd  = \                                                             
REMARK            /dls_sw/apps/GPhL/BUSTER/20220608/autoBUSTER/bin/linux64/refin
REMARK            -p \                                                          
REMARK            /dls/labxchem/data/lb32627/lb32627-1/processing/analysis/model
REMARK            -m \                                                          
REMARK            /dls/labxchem/data/lb32627/lb32627-1/processing/analysis/model
REMARK            -l \                                                          
REMARK            /dls/labxchem/data/lb32627/lb32627-1/processing/analysis/model
REMARK            -autoncs -M TLSbasic -d Refine_5                              
REMARK Files used:                                                              
REMARK   PDB              = Refine_5/pdbchk.pdb                                 
REMARK   MTZ              = /dls/labxchem/data/lb32627/lb32627-1/processing/anal
REMARK output written to subdirectory = Refine_5                                
REMARK best refinement for F,SIGF with R/Rfree 0.1916/0.2136                    
REMARK header records are copied from input PDB file (apart from REMARK 3!)     
REMARK --------------------- added by autoBUSTER -------------------------------
REMARK   2                                                            
REMARK   2 RESOLUTION.    1.15 ANGSTROMS.
REMARK   3
REMARK   3 REFINEMENT.
REMARK   3   PROGRAM     : BUSTER 2.10.4 (21-NOV-2022)
REMARK   3   AUTHORS     : BRICOGNE,BLANC,BRANDL,FLENSBURG,KELLER,
REMARK   3               : PACIOREK,ROVERSI,SHARFF,SMART,VONRHEIN,WOMACK;
REMARK   3               : MATTHEWS,TEN EYCK,TRONRUD
REMARK   3
REMARK   3  DATA USED IN REFINEMENT.
REMARK   3   RESOLUTION RANGE HIGH (ANGSTROMS) : 1.149
REMARK   3   RESOLUTION RANGE LOW  (ANGSTROMS) : 16.72
REMARK   3   DATA CUTOFF            (SIGMA(F)) : 0.000
REMARK   3   COMPLETENESS FOR RANGE        (%) : 84.0
REMARK   3   NUMBER OF REFLECTIONS             : 92415
REMARK   3
REMARK   3  FIT TO DATA USED IN REFINEMENT.
REMARK   3   CROSS-VALIDATION METHOD          : THROUGHOUT
REMARK   3   FREE R VALUE TEST SET SELECTION  : RANDOM
REMARK   3   R VALUE     (WORKING + TEST SET) : 0.1699
REMARK   3   R VALUE            (WORKING SET) : 0.1688
REMARK   3   FREE R VALUE                     : 0.1926
REMARK   3   FREE R VALUE TEST SET SIZE   (%) : 4.970
REMARK   3   FREE R VALUE TEST SET COUNT      : 4591
REMARK   3   ESTIMATED ERROR OF FREE R VALUE  : NULL
REMARK   3
REMARK   3  FIT IN THE HIGHEST RESOLUTION BIN.
REMARK   3   TOTAL NUMBER OF BINS USED           : 51
REMARK   3   BIN RESOLUTION RANGE HIGH       (A) : 1.15
REMARK   3   BIN RESOLUTION RANGE LOW        (A) : 1.19
REMARK   3   BIN COMPLETENESS (WORKING+TEST) (%) : 17.80
REMARK   3   REFLECTIONS IN BIN   (WORKING+TEST) : 1849
REMARK   3   BIN R VALUE          (WORKING+TEST) : 0.4179
REMARK   3   REFLECTIONS IN BIN    (WORKING SET) : 1747
REMARK   3   BIN R VALUE           (WORKING SET) : 0.4200
REMARK   3   BIN FREE R VALUE                    : 0.3812
REMARK   3   BIN FREE R VALUE TEST SET SIZE  (%) : 5.52
REMARK   3   BIN FREE R VALUE TEST SET COUNT     : 102
REMARK   3   ESTIMATED ERROR OF BIN FREE R VALUE : NULL
REMARK   3
REMARK   3  NUMBER OF NON-HYDROGEN ATOMS USED IN REFINEMENT.
REMARK   3   PROTEIN ATOMS            : 2518
REMARK   3   NUCLEIC ACID ATOMS       : 0
REMARK   3   HETEROGEN ATOMS          : 21
REMARK   3   SOLVENT ATOMS            : 405
REMARK   3
REMARK   3  B VALUES.
REMARK   3   FROM WILSON PLOT           (A**2) : 14.03
REMARK   3   MEAN B VALUE      (OVERALL, A**2) : 23.00
REMARK   3   OVERALL ANISOTROPIC B VALUE.
REMARK   3    B11 (A**2) : 4.12870
REMARK   3    B22 (A**2) : 4.12870
REMARK   3    B33 (A**2) : -8.25730
REMARK   3    B12 (A**2) : 0.00000
REMARK   3    B13 (A**2) : 0.00000
REMARK   3    B23 (A**2) : 0.00000
REMARK   3
REMARK   3  ESTIMATED COORDINATE ERROR.
REMARK   3   ESD FROM LUZZATI PLOT                    (A) : 0.17
REMARK   3   DPI (BLOW EQ-10) BASED ON R VALUE        (A) : 0.042
REMARK   3   DPI (BLOW EQ-9) BASED ON FREE R VALUE    (A) : 0.044
REMARK   3   DPI (CRUICKSHANK) BASED ON R VALUE       (A) : 0.039
REMARK   3   DPI (CRUICKSHANK) BASED ON FREE R VALUE  (A) : 0.042
REMARK   3
REMARK   3   REFERENCES: BLOW, D. (2002) ACTA CRYST D58, 792-797
REMARK   3               CRUICKSHANK, D.W.J. (1999) ACTA CRYST D55, 583-601
REMARK   3
REMARK   3  CORRELATION COEFFICIENTS.
REMARK   3   CORRELATION COEFFICIENT FO-FC      : 0.951
REMARK   3   CORRELATION COEFFICIENT FO-FC FREE : 0.954
REMARK   3
REMARK   3  X-RAY WEIGHT : 5.03
REMARK   3
REMARK   3  GEOMETRY FUNCTION.                                                  
REMARK   3   RESTRAINT LIBRARIES.                                               
REMARK   3    NUMBER OF LIBRARIES USED :   8                                    
REMARK   3    LIBRARY  1 : protgeo_eh99.dat (V1.6.4.20) 20220523  STANDARD      
REMARK   3                 AMINO ACID DICTIONARY. BONDS AND ANGLES FROM         
REMARK   3                 ENGH AND HUBER EH99. OTHER VALUES BASED ON           
REMARK   3                 PREVIOUS TNT OR TAKEN FROM CCP4. INCLUDES            
REMARK   3                 HYDROGEN ATOMS.                                      
REMARK   3    LIBRARY  2 : exoticaa.dat (V1.3.4.16) 20220523  COLLECTION        
REMARK   3                 OF NON-STANDARD AMINO ACIDS, MAINLY EH91             
REMARK   3                 WITHOUT IDEAL DISTANCE INFO                          
REMARK   3    LIBRARY  3 : nuclgeo.dat (V1.13.4.9) 20221011                     
REMARK   3    LIBRARY  4 : bcorrel.dat (V1.15.10.2) 20190616                    
REMARK   3    LIBRARY  5 : contact.dat (V1.15.12.10) 20191121                   
REMARK   3    LIBRARY  6 : idealdist_contact.dat (V1.3.4.13) 20220125           
REMARK   3                 IDEAL-DISTANCE CONTACT TERM DATA AS USED IN          
REMARK   3                 PROLSQ. VALUES USED HERE ARE BASED ON DATA           
REMARK   3                 HARVESTING OF PDB AS OF 20190109.                    
REMARK   3    LIBRARY  7 : restraints for LIG (unknown) from cif                
REMARK   3                 dictionary ASAP-0000243-001.cif; generated by        
REMARK   3                 GRADE 1.2.21 (Feb 03 2022) from SMILES               
REMARK   3                 CO[C@@]1(C(=O)O)CCN(C(=O)c2ncnc3[nH]ccc23)C1         
REMARK   3                 using MOGUL 1.8.5(274361), CSD as541be, with         
REMARK   3                 quantum mechanics RM1                                
REMARK   3    LIBRARY  8 : assume.dat (V1.9.4.3) 20221011                       
REMARK   3                                                                      
REMARK   3   NUMBER OF GEOMETRIC FUNCTION TERMS DEFINED : 15                    
REMARK   3   TERM                          COUNT    WEIGHT   FUNCTION.          
REMARK   3    BOND LENGTHS              :   2619 ;   2.00 ;  HARMONIC           
REMARK   3    BOND ANGLES               :   3569 ;   2.00 ;  HARMONIC           
REMARK   3    TORSION ANGLES            :    894 ;   2.00 ;  SINUSOIDAL         
REMARK   3    TRIGONAL CARBON PLANES    :   NULL ;   NULL ;  NULL               
REMARK   3    GENERAL PLANES            :    467 ;   5.00 ;  HARMONIC           
REMARK   3    ISOTROPIC THERMAL FACTORS :   2596 ;  10.00 ;  HARMONIC           
REMARK   3    BAD NON-BONDED CONTACTS   :   NULL ;   NULL ;  NULL               
REMARK   3    IMPROPER TORSIONS         :   NULL ;   NULL ;  NULL               
REMARK   3    PSEUDOROTATION ANGLES     :   NULL ;   NULL ;  NULL               
REMARK   3    CHIRAL IMPROPER TORSION   :    337 ;   5.00 ;  SEMIHARMONIC       
REMARK   3    SUM OF OCCUPANCIES        :   NULL ;   NULL ;  NULL               
REMARK   3    UTILITY DISTANCES         :   NULL ;   NULL ;  NULL               
REMARK   3    UTILITY ANGLES            :   NULL ;   NULL ;  NULL               
REMARK   3    UTILITY TORSION           :   NULL ;   NULL ;  NULL               
REMARK   3    IDEAL-DIST CONTACT TERM   :   2639 ;   4.00 ;  SEMIHARMONIC       
REMARK   3                                                                      
REMARK   3   RMS DEVIATIONS FROM IDEAL VALUES.                                  
REMARK   3   BOND LENGTHS                       (A) : 0.014                     
REMARK   3   BOND ANGLES                  (DEGREES) : 1.43                      
REMARK   3   PEPTIDE OMEGA TORSION ANGLES (DEGREES) : 5.18                      
REMARK   3   OTHER TORSION ANGLES         (DEGREES) : 14.58                     
REMARK   3                                                                      
REMARK   3   SIMILARITY.                                                        
REMARK   3    NCS.                                                              
REMARK   3     NCS METHOD: RESTRAINT LSSR (-AUTONCS)                            
REMARK   3    TARGET RESTRAINTS.                                                
REMARK   3     TARGET REPRESENTATION : NONE                                     
REMARK   3     TARGET STRUCTURE : NULL                                          
REMARK   3                                                                      
REMARK   3  TLS DETAILS.                                                        
REMARK   3   NUMBER OF TLS GROUPS  :            0                               
REMARK   3                                                                      
REMARK   3  REFINEMENT NOTES.                                                   
REMARK   3   NUMBER OF REFINEMENT NOTES :   1                                   
REMARK   3   NOTE   1 : IDEAL-DIST CONTACT TERM CONTACT SETUP. ALL ATOMS        
REMARK   3               HAVE CCP4 ATOM TYPE FROM LIBRARY                       
REMARK   3
REMARK   3  OTHER REFINEMENT REMARKS: NULL
REMARK   3
REMARK 290                                                            
REMARK 290 CRYSTALLOGRAPHIC SYMMETRY                                  
REMARK 290 SYMMETRY OPERATORS FOR SPACE GROUP: P 43                   
REMARK 290                                                            
REMARK 290      SYMOP   SYMMETRY                                      
REMARK 290     NNNMMM   OPERATOR                                      
REMARK 290       1555   X,Y,Z                                         
REMARK 290       2555   -X,-Y,1/2+Z                                   
REMARK 290       3555   -Y,X,3/4+Z                                    
REMARK 290       4555   Y,-X,1/4+Z                                    
REMARK 290                                                            
REMARK 290     WHERE NNN -> OPERATOR NUMBER                           
REMARK 290           MMM -> TRANSLATION VECTOR                        
REMARK 290                                                            
REMARK 290 CRYSTALLOGRAPHIC SYMMETRY TRANSFORMATIONS                  
REMARK 290 THE FOLLOWING TRANSFORMATIONS OPERATE ON THE ATOM/HETATM   
REMARK 290 RECORDS IN THIS ENTRY TO PRODUCE CRYSTALLOGRAPHICALLY      
REMARK 290 RELATED MOLECULES.                                         
REMARK 290   SMTRY1   1  1.000000  0.000000  0.000000        0.00000
REMARK 290   SMTRY2   1  0.000000  1.000000  0.000000        0.00000
REMARK 290   SMTRY3   1  0.000000  0.000000  1.000000        0.00000
REMARK 290   SMTRY1   2 -1.000000  0.000000  0.000000        0.00000
REMARK 290   SMTRY2   2  0.000000 -1.000000  0.000000        0.00000
REMARK 290   SMTRY3   2  0.000000  0.000000  1.000000       19.74600
REMARK 290   SMTRY1   3  0.000000 -1.000000  0.000000        0.00000
REMARK 290   SMTRY2   3  1.000000  0.000000  0.000000        0.00000
REMARK 290   SMTRY3   3  0.000000  0.000000  1.000000       29.61900
REMARK 290   SMTRY1   4  0.000000  1.000000  0.000000        0.00000
REMARK 290   SMTRY2   4 -1.000000  0.000000  0.000000        0.00000
REMARK 290   SMTRY3   4  0.000000  0.000000  1.000000        9.87300
REMARK 290                                                            
REMARK 290 REMARK: NULL                                               
REMARK 300
REMARK 300 BIOMOLECULE: 1, 2
REMARK 300 SEE REMARK 350 FOR THE AUTHOR PROVIDED AND/OR PROGRAM
REMARK 300 GENERATED ASSEMBLY INFORMATION FOR THE STRUCTURE IN
REMARK 300 THIS ENTRY. THE REMARK MAY ALSO  PROVIDE INFORMATION ON
REMARK 300 BURIED SURFACE AREA.
REMARK 350
REMARK 350 COORDINATES FOR A COMPLETE MULTIMER REPRESENTING THE KNOWN
REMARK 350 BIOLOGICALLY SIGNIFICANT OLIGOMERIZATION STATE OF THE
REMARK 350 MOLECULE CAN BE GENERATED BY APPLYING BIOMT TRANSFORMATIONS
REMARK 350 GIVEN BELOW. BOTH NON-CRYSTALLOGRAPHIC AND
REMARK 350 CRYSTALLOGRAPHIC OPERATIONS ARE GIVEN.
REMARK 350
REMARK 350 BIOMOLECULE: 1
REMARK 350 SOFTWARE DETERMINED QUATERNARY STRUCTURE: MONOMERIC
REMARK 350 SOFTWARE USED: PISA
REMARK 350 SURFACE AREA OF THE MONOMER: 7859 ANGSTROM**2
REMARK 350 FREE ENERGY OF FOLDING: -154.6 KCAL/MOL
REMARK 350 APPLY THE FOLLOWING TO CHAINS: A,W
REMARK 350   BIOMT1   1  1.000000  0.000000  0.000000        0.00000
REMARK 350   BIOMT2   1  0.000000  1.000000  0.000000        0.00000
REMARK 350   BIOMT3   1  0.000000  0.000000  1.000000        0.00000
REMARK 350
REMARK 350 BIOMOLECULE: 2
REMARK 350 SOFTWARE DETERMINED QUATERNARY STRUCTURE: MONOMERIC
REMARK 350 SOFTWARE USED: PISA
REMARK 350 SURFACE AREA OF THE MONOMER: 8071 ANGSTROM**2
REMARK 350 FREE ENERGY OF FOLDING: -156.9 KCAL/MOL
REMARK 350 APPLY THE FOLLOWING TO CHAINS: B,W
REMARK 350   BIOMT1   1  1.000000  0.000000  0.000000        0.00000
REMARK 350   BIOMT2   1  0.000000  1.000000  0.000000        0.00000
REMARK 350   BIOMT3   1  0.000000  0.000000  1.000000        0.00000
CRYST1   88.894   88.894   39.492  90.00  90.00  90.00 P 43                     


$$$$
SARS2_Mac1A-A0306
  PyMOL3.0          3D                             0

 29 32  0  0  0  0  0  0  0  0999 V2000
   -6.2760   15.2050    2.6330 N   0  0  0  0  0  0  0  0  0  0  0  0
   -7.5940   15.2800    2.9950 C   0  0  0  0  0  0  0  0  0  0  0  0
   -8.5030   15.5050    2.2060 O   0  0  0  0  0  0  0  0  0  0  0  0
   -5.7020   15.2820    1.3380 C   0  0  0  0  0  0  0  0  0  0  0  0
   -2.4280   14.6220   -2.4270 N   0  0  0  0  0  0  0  0  0  0  0  0
   -4.1800   15.5440   -3.4780 O   0  0  0  0  0  0  0  0  0  0  0  0
   -6.4150   15.2500    0.1450 C   0  0  0  0  0  0  0  0  0  0  0  0
    1.4480   16.4260   -3.9960 N   0  0  0  0  0  0  0  0  0  0  0  0
    0.7390   13.6660   -1.8210 O   0  0  0  0  0  0  0  0  0  0  0  0
   -5.7490   15.2770   -1.0680 C   0  0  0  0  0  0  0  0  0  0  0  0
   -7.8030   15.1200    4.3260 N   0  0  0  0  0  0  0  0  0  0  0  0
    2.6400   14.0720   -3.0130 O   0  0  0  0  0  0  0  0  0  0  0  0
   -4.3550   15.2800   -1.1210 C   0  0  0  0  0  0  0  0  0  0  0  0
   -3.6540   15.1560   -2.4370 C   0  0  0  0  0  0  0  0  0  0  0  0
   -1.7000   14.3980   -3.6680 C   0  0  0  0  0  0  0  0  0  0  0  0
   -0.5760   15.4300   -3.9160 C   0  0  0  0  0  0  0  0  0  0  0  0
    0.7410   15.3210   -3.5400 C   0  0  0  0  0  0  0  0  0  0  0  0
    1.3830   14.2870   -2.7230 C   0  0  0  0  0  0  0  0  0  0  0  0
    0.5780   17.2480   -4.7020 C   0  0  0  0  0  0  0  0  0  0  0  0
    0.8090   18.4720   -5.3500 C   0  0  0  0  0  0  0  0  0  0  0  0
   -0.2820   19.1430   -5.8630 C   0  0  0  0  0  0  0  0  0  0  0  0
   -1.5810   18.6340   -5.7010 C   0  0  0  0  0  0  0  0  0  0  0  0
   -1.7920   17.3910   -5.1210 C   0  0  0  0  0  0  0  0  0  0  0  0
   -0.7080   16.6730   -4.6270 C   0  0  0  0  0  0  0  0  0  0  0  0
   -3.6510   15.3410    0.0750 C   0  0  0  0  0  0  0  0  0  0  0  0
   -4.3130   15.3480    1.2910 C   0  0  0  0  0  0  0  0  0  0  0  0
   -9.1330   15.1680    4.9300 C   0  0  0  0  0  0  0  0  0  0  0  0
   -9.8190   13.8920    5.2200 C   0  0  0  0  0  0  0  0  0  0  0  0
   -9.2880   14.7200    6.3300 C   0  0  0  0  0  0  0  0  0  0  0  0
  1  2  1  0  0  0  0
  2  3  2  0  0  0  0
  2 11  1  0  0  0  0
  1  4  1  0  0  0  0
  5 14  1  0  0  0  0
  4  7  4  0  0  0  0
  8 19  4  0  0  0  0
  9 18  4  0  0  0  0
  7 10  4  0  0  0  0
 11 27  1  0  0  0  0
 10 13  4  0  0  0  0
 13 25  4  0  0  0  0
  6 14  2  0  0  0  0
 13 14  1  0  0  0  0
  5 15  1  0  0  0  0
 15 16  1  0  0  0  0
  8 17  4  0  0  0  0
 16 17  4  0  0  0  0
 12 18  4  0  0  0  0
 17 18  1  0  0  0  0
 19 20  4  0  0  0  0
 19 24  4  0  0  0  0
 20 21  4  0  0  0  0
 21 22  4  0  0  0  0
 22 23  4  0  0  0  0
 16 24  4  0  0  0  0
 23 24  4  0  0  0  0
 25 26  4  0  0  0  0
  4 26  4  0  0  0  0
 27 28  1  0  0  0  0
 27 29  1  0  0  0  0
 28 29  1  0  0  0  0
M  END
>  <pdb_header>
HEADER    ----                                    18-MAY-20                     
TITLE     ---                                                                   
EXPDTA    X-RAY DIFFRACTION                                                     
REMARK --------------------- added by autoBUSTER ---------------------------------START
REMARK run at   = Mon Mar 27 16:43:08 BST 2023
REMARK     in   = /dls/labxchem/data/lb32627/lb32627-1/processing/analysis/model_building/SARS2_Mac1A-A0306
REMARK     user = ill13029
REMARK     cmd  = \
REMARK            /dls_sw/apps/GPhL/BUSTER/20221121/autoBUSTER/bin/linux64/refine \
REMARK            -p \
REMARK            /dls/labxchem/data/lb32627/lb32627-1/processing/analysis/model_building/SARS2_Mac1A-A0306/cootOut/Refi
REMARK            -m \
REMARK            /dls/labxchem/data/lb32627/lb32627-1/processing/analysis/model_building/SARS2_Mac1A-A0306/SARS2_Mac1A-
REMARK            -l \
REMARK            /dls/labxchem/data/lb32627/lb32627-1/processing/analysis/model_building/SARS2_Mac1A-A0306/ASAP-0000131
REMARK            -autoncs -M ADP -d Refine_9
REMARK Files used:
REMARK   PDB              = Refine_9/pdbchk.pdb
REMARK   MTZ              = /dls/labxchem/data/lb32627/lb32627-1/processing/analysis/model_building/SARS2_Mac1A-A0306/SA
REMARK output written to subdirectory = Refine_9
REMARK best refinement for F,SIGF with R/Rfree 0.1643/0.2021
REMARK header records are copied from input PDB file (apart from REMARK 3!)
REMARK --------------------- added by autoBUSTER -----------------------------------END
REMARK --------------------- added by autoBUSTER -------------------------------
REMARK run at   = Wed Dec  7 17:40:10 GMT 2022                                  
REMARK     in   = /dls/labxchem/data/lb32627/lb32627-1/processing/analysis/model
REMARK     user = ill13029                                                      
REMARK     cmd  = \                                                             
REMARK            /dls_sw/apps/GPhL/BUSTER/20220608/autoBUSTER/bin/linux64/refin
REMARK            -p \                                                          
REMARK            /dls/labxchem/data/lb32627/lb32627-1/processing/analysis/model
REMARK            -m \                                                          
REMARK            /dls/labxchem/data/lb32627/lb32627-1/processing/analysis/model
REMARK            -l \                                                          
REMARK            /dls/labxchem/data/lb32627/lb32627-1/processing/analysis/model
REMARK            -autoncs -M ADP -d Refine_7                                   
REMARK Files used:                                                              
REMARK   PDB              = Refine_7/pdbchk.pdb                                 
REMARK   MTZ              = /dls/labxchem/data/lb32627/lb32627-1/processing/anal
REMARK output written to subdirectory = Refine_7                                
REMARK best refinement for F,SIGF with R/Rfree 0.1643/0.2022                    
REMARK header records are copied from input PDB file (apart from REMARK 3!)     
REMARK --------------------- added by autoBUSTER -------------------------------
REMARK --------------------- added by autoBUSTER -------------------------------
REMARK run at   = Wed Dec  7 16:36:32 GMT 2022                                  
REMARK     in   = /dls/labxchem/data/lb32627/lb32627-1/processing/analysis/model
REMARK     user = ill13029                                                      
REMARK     cmd  = \                                                             
REMARK            /dls_sw/apps/GPhL/BUSTER/20220608/autoBUSTER/bin/linux64/refin
REMARK            -p \                                                          
REMARK            /dls/labxchem/data/lb32627/lb32627-1/processing/analysis/model
REMARK            -m \                                                          
REMARK            /dls/labxchem/data/lb32627/lb32627-1/processing/analysis/model
REMARK            -l \                                                          
REMARK            /dls/labxchem/data/lb32627/lb32627-1/processing/analysis/model
REMARK            -autoncs -M ADP -B user -Gelly gelly.dat -d Refine_6          
REMARK Files used:                                                              
REMARK   PDB              = Refine_6/pdbchk.pdb                                 
REMARK   MTZ              = /dls/labxchem/data/lb32627/lb32627-1/processing/anal
REMARK   Gelly commands       = /dls/labxchem/data/lb32627/lb32627-1/processing/
REMARK output written to subdirectory = Refine_6                                
REMARK best refinement for F,SIGF with R/Rfree 0.1643/0.2021                    
REMARK header records are copied from input PDB file (apart from REMARK 3!)     
REMARK --------------------- added by autoBUSTER -------------------------------
REMARK --------------------- added by autoBUSTER -------------------------------
REMARK run at   = Wed Dec  7 12:01:42 GMT 2022                                  
REMARK     in   = /dls/labxchem/data/lb32627/lb32627-1/processing/analysis/model
REMARK     user = ill13029                                                      
REMARK     cmd  = \                                                             
REMARK            /dls_sw/apps/GPhL/BUSTER/20220608/autoBUSTER/bin/linux64/refin
REMARK            -p \                                                          
REMARK            /dls/labxchem/data/lb32627/lb32627-1/processing/analysis/model
REMARK            -m \                                                          
REMARK            /dls/labxchem/data/lb32627/lb32627-1/processing/analysis/model
REMARK            -l \                                                          
REMARK            /dls/labxchem/data/lb32627/lb32627-1/processing/analysis/model
REMARK            -autoncs -M ADP -d Refine_5                                   
REMARK Files used:                                                              
REMARK   PDB              = Refine_5/pdbchk.pdb                                 
REMARK   MTZ              = /dls/labxchem/data/lb32627/lb32627-1/processing/anal
REMARK output written to subdirectory = Refine_5                                
REMARK best refinement for F,SIGF with R/Rfree 0.1654/0.2034                    
REMARK header records are copied from input PDB file (apart from REMARK 3!)     
REMARK --------------------- added by autoBUSTER -------------------------------
REMARK --------------------- added by autoBUSTER -------------------------------
REMARK run at   = Tue Nov 29 10:16:00 GMT 2022                                  
REMARK     in   = /dls/labxchem/data/lb32627/lb32627-1/processing/analysis/model
REMARK     user = ill13029                                                      
REMARK     cmd  = \                                                             
REMARK            /dls_sw/apps/GPhL/BUSTER/20220608/autoBUSTER/bin/linux64/refin
REMARK            -p \                                                          
REMARK            /dls/labxchem/data/lb32627/lb32627-1/processing/analysis/model
REMARK            -m \                                                          
REMARK            /dls/labxchem/data/lb32627/lb32627-1/processing/analysis/model
REMARK            -l \                                                          
REMARK            /dls/labxchem/data/lb32627/lb32627-1/processing/analysis/model
REMARK            -autoncs -M TLSbasic -d Refine_4                              
REMARK Files used:                                                              
REMARK   PDB              = Refine_4/pdbchk.pdb                                 
REMARK   MTZ              = /dls/labxchem/data/lb32627/lb32627-1/processing/anal
REMARK output written to subdirectory = Refine_4                                
REMARK best refinement for F,SIGF with R/Rfree 0.1875/0.2276                    
REMARK header records are copied from input PDB file (apart from REMARK 3!)     
REMARK --------------------- added by autoBUSTER -------------------------------
REMARK   2                                                            
REMARK   2 RESOLUTION.    1.29 ANGSTROMS.
REMARK   3
REMARK   3 REFINEMENT.
REMARK   3   PROGRAM     : BUSTER 2.10.4 (21-NOV-2022)
REMARK   3   AUTHORS     : BRICOGNE,BLANC,BRANDL,FLENSBURG,KELLER,
REMARK   3               : PACIOREK,ROVERSI,SHARFF,SMART,VONRHEIN,WOMACK;
REMARK   3               : MATTHEWS,TEN EYCK,TRONRUD
REMARK   3
REMARK   3  DATA USED IN REFINEMENT.
REMARK   3   RESOLUTION RANGE HIGH (ANGSTROMS) : 1.293
REMARK   3   RESOLUTION RANGE LOW  (ANGSTROMS) : 18.92
REMARK   3   DATA CUTOFF            (SIGMA(F)) : 0.000
REMARK   3   COMPLETENESS FOR RANGE        (%) : 98.2
REMARK   3   NUMBER OF REFLECTIONS             : 75961
REMARK   3
REMARK   3  FIT TO DATA USED IN REFINEMENT.
REMARK   3   CROSS-VALIDATION METHOD          : THROUGHOUT
REMARK   3   FREE R VALUE TEST SET SELECTION  : RANDOM
REMARK   3   R VALUE     (WORKING + TEST SET) : 0.1662
REMARK   3   R VALUE            (WORKING SET) : 0.1643
REMARK   3   FREE R VALUE                     : 0.2021
REMARK   3   FREE R VALUE TEST SET SIZE   (%) : 4.950
REMARK   3   FREE R VALUE TEST SET COUNT      : 3761
REMARK   3   ESTIMATED ERROR OF FREE R VALUE  : NULL
REMARK   3
REMARK   3  FIT IN THE HIGHEST RESOLUTION BIN.
REMARK   3   TOTAL NUMBER OF BINS USED           : 51
REMARK   3   BIN RESOLUTION RANGE HIGH       (A) : 1.29
REMARK   3   BIN RESOLUTION RANGE LOW        (A) : 1.30
REMARK   3   BIN COMPLETENESS (WORKING+TEST) (%) : 77.08
REMARK   3   REFLECTIONS IN BIN   (WORKING+TEST) : 1520
REMARK   3   BIN R VALUE          (WORKING+TEST) : 0.3883
REMARK   3   REFLECTIONS IN BIN    (WORKING SET) : 1439
REMARK   3   BIN R VALUE           (WORKING SET) : 0.3873
REMARK   3   BIN FREE R VALUE                    : 0.4070
REMARK   3   BIN FREE R VALUE TEST SET SIZE  (%) : 5.33
REMARK   3   BIN FREE R VALUE TEST SET COUNT     : 81
REMARK   3   ESTIMATED ERROR OF BIN FREE R VALUE : NULL
REMARK   3
REMARK   3  NUMBER OF NON-HYDROGEN ATOMS USED IN REFINEMENT.
REMARK   3   PROTEIN ATOMS            : 2518
REMARK   3   NUCLEIC ACID ATOMS       : 0
REMARK   3   HETEROGEN ATOMS          : 29
REMARK   3   SOLVENT ATOMS            : 398
REMARK   3
REMARK   3  B VALUES.
REMARK   3   FROM WILSON PLOT           (A**2) : 18.49
REMARK   3   MEAN B VALUE      (OVERALL, A**2) : 24.97
REMARK   3   OVERALL ANISOTROPIC B VALUE.
REMARK   3    B11 (A**2) : 3.78090
REMARK   3    B22 (A**2) : 3.78090
REMARK   3    B33 (A**2) : -7.56180
REMARK   3    B12 (A**2) : 0.00000
REMARK   3    B13 (A**2) : 0.00000
REMARK   3    B23 (A**2) : 0.00000
REMARK   3
REMARK   3  ESTIMATED COORDINATE ERROR.
REMARK   3   ESD FROM LUZZATI PLOT                    (A) : 0.16
REMARK   3   DPI (BLOW EQ-10) BASED ON R VALUE        (A) : 0.049
REMARK   3   DPI (BLOW EQ-9) BASED ON FREE R VALUE    (A) : 0.054
REMARK   3   DPI (CRUICKSHANK) BASED ON R VALUE       (A) : 0.046
REMARK   3   DPI (CRUICKSHANK) BASED ON FREE R VALUE  (A) : 0.052
REMARK   3
REMARK   3   REFERENCES: BLOW, D. (2002) ACTA CRYST D58, 792-797
REMARK   3               CRUICKSHANK, D.W.J. (1999) ACTA CRYST D55, 583-601
REMARK   3
REMARK   3  CORRELATION COEFFICIENTS.
REMARK   3   CORRELATION COEFFICIENT FO-FC      : 0.962
REMARK   3   CORRELATION COEFFICIENT FO-FC FREE : 0.959
REMARK   3
REMARK   3  X-RAY WEIGHT : 4.27
REMARK   3
REMARK   3  GEOMETRY FUNCTION.                                                  
REMARK   3   RESTRAINT LIBRARIES.                                               
REMARK   3    NUMBER OF LIBRARIES USED :   8                                    
REMARK   3    LIBRARY  1 : protgeo_eh99.dat (V1.6.4.20) 20220523  STANDARD      
REMARK   3                 AMINO ACID DICTIONARY. BONDS AND ANGLES FROM         
REMARK   3                 ENGH AND HUBER EH99. OTHER VALUES BASED ON           
REMARK   3                 PREVIOUS TNT OR TAKEN FROM CCP4. INCLUDES            
REMARK   3                 HYDROGEN ATOMS.                                      
REMARK   3    LIBRARY  2 : exoticaa.dat (V1.3.4.16) 20220523  COLLECTION        
REMARK   3                 OF NON-STANDARD AMINO ACIDS, MAINLY EH91             
REMARK   3                 WITHOUT IDEAL DISTANCE INFO                          
REMARK   3    LIBRARY  3 : nuclgeo.dat (V1.13.4.9) 20221011                     
REMARK   3    LIBRARY  4 : bcorrel.dat (V1.15.10.2) 20190616                    
REMARK   3    LIBRARY  5 : contact.dat (V1.15.12.10) 20191121                   
REMARK   3    LIBRARY  6 : idealdist_contact.dat (V1.3.4.13) 20220125           
REMARK   3                 IDEAL-DISTANCE CONTACT TERM DATA AS USED IN          
REMARK   3                 PROLSQ. VALUES USED HERE ARE BASED ON DATA           
REMARK   3                 HARVESTING OF PDB AS OF 20190109.                    
REMARK   3    LIBRARY  7 : restraints for LIG (unknown) from cif                
REMARK   3                 dictionary ASAP-0000131-001.cif; generated by        
REMARK   3                 GRADE 1.2.21 (Feb 03 2022) from SMILES               
REMARK   3                 O=C(Nc1ccc(C(=O)NCc2c(C(=O)O)[nH]c3ccccc23)cc1)N     
REMARK   3                 C1CC1 using MOGUL 1.8.5(274361), CSD as541be,        
REMARK   3                 with quantum mechanics RM1                           
REMARK   3    LIBRARY  8 : assume.dat (V1.9.4.3) 20221011                       
REMARK   3                                                                      
REMARK   3   NUMBER OF GEOMETRIC FUNCTION TERMS DEFINED : 15                    
REMARK   3   TERM                          COUNT    WEIGHT   FUNCTION.          
REMARK   3    BOND LENGTHS              :   2628 ;   2.00 ;  HARMONIC           
REMARK   3    BOND ANGLES               :   3580 ;   2.00 ;  HARMONIC           
REMARK   3    TORSION ANGLES            :    894 ;   2.00 ;  SINUSOIDAL         
REMARK   3    TRIGONAL CARBON PLANES    :   NULL ;   NULL ;  NULL               
REMARK   3    GENERAL PLANES            :    477 ;   5.00 ;  HARMONIC           
REMARK   3    ISOTROPIC THERMAL FACTORS :   2596 ;  10.00 ;  HARMONIC           
REMARK   3    BAD NON-BONDED CONTACTS   :   NULL ;   NULL ;  NULL               
REMARK   3    IMPROPER TORSIONS         :   NULL ;   NULL ;  NULL               
REMARK   3    PSEUDOROTATION ANGLES     :   NULL ;   NULL ;  NULL               
REMARK   3    CHIRAL IMPROPER TORSION   :    336 ;   5.00 ;  SEMIHARMONIC       
REMARK   3    SUM OF OCCUPANCIES        :   NULL ;   NULL ;  NULL               
REMARK   3    UTILITY DISTANCES         :   NULL ;   NULL ;  NULL               
REMARK   3    UTILITY ANGLES            :   NULL ;   NULL ;  NULL               
REMARK   3    UTILITY TORSION           :   NULL ;   NULL ;  NULL               
REMARK   3    IDEAL-DIST CONTACT TERM   :   2740 ;   4.00 ;  SEMIHARMONIC       
REMARK   3                                                                      
REMARK   3   RMS DEVIATIONS FROM IDEAL VALUES.                                  
REMARK   3   BOND LENGTHS                       (A) : 0.012                     
REMARK   3   BOND ANGLES                  (DEGREES) : 1.15                      
REMARK   3   PEPTIDE OMEGA TORSION ANGLES (DEGREES) : 4.82                      
REMARK   3   OTHER TORSION ANGLES         (DEGREES) : 14.72                     
REMARK   3                                                                      
REMARK   3   SIMILARITY.                                                        
REMARK   3    NCS.                                                              
REMARK   3     NCS METHOD: RESTRAINT LSSR (-AUTONCS)                            
REMARK   3    TARGET RESTRAINTS.                                                
REMARK   3     TARGET REPRESENTATION : NONE                                     
REMARK   3     TARGET STRUCTURE : NULL                                          
REMARK   3                                                                      
REMARK   3  TLS DETAILS.                                                        
REMARK   3   NUMBER OF TLS GROUPS  :            0                               
REMARK   3                                                                      
REMARK   3  REFINEMENT NOTES.                                                   
REMARK   3   NUMBER OF REFINEMENT NOTES :   1                                   
REMARK   3   NOTE   1 : IDEAL-DIST CONTACT TERM CONTACT SETUP. ALL ATOMS        
REMARK   3               HAVE CCP4 ATOM TYPE FROM LIBRARY                       
REMARK   3
REMARK   3  OTHER REFINEMENT REMARKS: NULL
REMARK   3
REMARK 290                                                            
REMARK 290 CRYSTALLOGRAPHIC SYMMETRY                                  
REMARK 290 SYMMETRY OPERATORS FOR SPACE GROUP: P 43                   
REMARK 290                                                            
REMARK 290      SYMOP   SYMMETRY                                      
REMARK 290     NNNMMM   OPERATOR                                      
REMARK 290       1555   X,Y,Z                                         
REMARK 290       2555   -X,-Y,1/2+Z                                   
REMARK 290       3555   -Y,X,3/4+Z                                    
REMARK 290       4555   Y,-X,1/4+Z                                    
REMARK 290                                                            
REMARK 290     WHERE NNN -> OPERATOR NUMBER                           
REMARK 290           MMM -> TRANSLATION VECTOR                        
REMARK 290                                                            
REMARK 290 CRYSTALLOGRAPHIC SYMMETRY TRANSFORMATIONS                  
REMARK 290 THE FOLLOWING TRANSFORMATIONS OPERATE ON THE ATOM/HETATM   
REMARK 290 RECORDS IN THIS ENTRY TO PRODUCE CRYSTALLOGRAPHICALLY      
REMARK 290 RELATED MOLECULES.                                         
REMARK 290   SMTRY1   1  1.000000  0.000000  0.000000        0.00000
REMARK 290   SMTRY2   1  0.000000  1.000000  0.000000        0.00000
REMARK 290   SMTRY3   1  0.000000  0.000000  1.000000        0.00000
REMARK 290   SMTRY1   2 -1.000000  0.000000  0.000000        0.00000
REMARK 290   SMTRY2   2  0.000000 -1.000000  0.000000        0.00000
REMARK 290   SMTRY3   2  0.000000  0.000000  1.000000       19.69750
REMARK 290   SMTRY1   3  0.000000 -1.000000  0.000000        0.00000
REMARK 290   SMTRY2   3  1.000000  0.000000  0.000000        0.00000
REMARK 290   SMTRY3   3  0.000000  0.000000  1.000000       29.54625
REMARK 290   SMTRY1   4  0.000000  1.000000  0.000000        0.00000
REMARK 290   SMTRY2   4 -1.000000  0.000000  0.000000        0.00000
REMARK 290   SMTRY3   4  0.000000  0.000000  1.000000        9.84875
REMARK 290                                                            
REMARK 290 REMARK: NULL                                               
REMARK 300
REMARK 300 BIOMOLECULE: 1, 2
REMARK 300 SEE REMARK 350 FOR THE AUTHOR PROVIDED AND/OR PROGRAM
REMARK 300 GENERATED ASSEMBLY INFORMATION FOR THE STRUCTURE IN
REMARK 300 THIS ENTRY. THE REMARK MAY ALSO  PROVIDE INFORMATION ON
REMARK 300 BURIED SURFACE AREA.
REMARK 350
REMARK 350 COORDINATES FOR A COMPLETE MULTIMER REPRESENTING THE KNOWN
REMARK 350 BIOLOGICALLY SIGNIFICANT OLIGOMERIZATION STATE OF THE
REMARK 350 MOLECULE CAN BE GENERATED BY APPLYING BIOMT TRANSFORMATIONS
REMARK 350 GIVEN BELOW. BOTH NON-CRYSTALLOGRAPHIC AND
REMARK 350 CRYSTALLOGRAPHIC OPERATIONS ARE GIVEN.
REMARK 350
REMARK 350 BIOMOLECULE: 1
REMARK 350 SOFTWARE DETERMINED QUATERNARY STRUCTURE: MONOMERIC
REMARK 350 SOFTWARE USED: PISA
REMARK 350 SURFACE AREA OF THE MONOMER: 7804 ANGSTROM**2
REMARK 350 FREE ENERGY OF FOLDING: -155.8 KCAL/MOL
REMARK 350 APPLY THE FOLLOWING TO CHAINS: A,W
REMARK 350   BIOMT1   1  1.000000  0.000000  0.000000        0.00000
REMARK 350   BIOMT2   1  0.000000  1.000000  0.000000        0.00000
REMARK 350   BIOMT3   1  0.000000  0.000000  1.000000        0.00000
REMARK 350
REMARK 350 BIOMOLECULE: 2
REMARK 350 SOFTWARE DETERMINED QUATERNARY STRUCTURE: MONOMERIC
REMARK 350 SOFTWARE USED: PISA
REMARK 350 SURFACE AREA OF THE MONOMER: 8126 ANGSTROM**2
REMARK 350 FREE ENERGY OF FOLDING: -158.4 KCAL/MOL
REMARK 350 APPLY THE FOLLOWING TO CHAINS: B,W
REMARK 350   BIOMT1   1  1.000000  0.000000  0.000000        0.00000
REMARK 350   BIOMT2   1  0.000000  1.000000  0.000000        0.00000
REMARK 350   BIOMT3   1  0.000000  0.000000  1.000000        0.00000
CRYST1   88.950   88.950   39.395  90.00  90.00  90.00 P 43                     


$$$$
SARS2_Mac1A-A0594
  PyMOL3.0          3D                             0

 17 18  0  0  0  0  0  0  0  0999 V2000
   -0.7900   14.1840   -2.3370 N   0  0  0  0  0  0  0  0  0  0  0  0
    2.2660   13.2930   -4.4330 C   0  0  0  0  0  0  0  0  0  0  0  0
    0.9410   13.9780   -4.1270 C   0  0  0  0  0  0  0  0  0  0  0  0
    0.1780   14.2170   -0.2480 N   0  0  0  0  0  0  0  0  0  0  0  0
    1.0920   15.4760   -4.0320 C   0  0  0  0  0  0  0  0  0  0  0  0
   -0.9520   15.0400    1.7490 N   0  0  0  0  0  0  0  0  0  0  0  0
    0.3350   13.3960   -2.8400 C   0  0  0  0  0  0  0  0  0  0  0  0
   -3.2460   15.7590    1.3610 N   0  0  0  0  0  0  0  0  0  0  0  0
   -0.8770   14.5380   -1.0190 C   0  0  0  0  0  0  0  0  0  0  0  0
    0.0900   14.5370    1.0660 C   0  0  0  0  0  0  0  0  0  0  0  0
   -2.0250   15.2760    0.9550 C   0  0  0  0  0  0  0  0  0  0  0  0
   -4.0300   15.9370    0.2430 C   0  0  0  0  0  0  0  0  0  0  0  0
   -3.3600   15.5410   -0.8730 C   0  0  0  0  0  0  0  0  0  0  0  0
   -2.0630   15.0990   -0.4400 C   0  0  0  0  0  0  0  0  0  0  0  0
   -0.1010   11.9560   -2.9710 C   0  0  0  0  0  0  0  0  0  0  0  0
    0.9380   11.1030   -2.8190 F   0  0  0  0  0  0  0  0  0  0  0  0
   -0.9350   11.6500   -1.9580 F   0  0  0  0  0  0  0  0  0  0  0  0
  1  9  1  0  0  0  0
  2  3  1  0  0  0  0
  3  5  1  0  0  0  0
  6 10  4  0  0  0  0
  1  7  1  0  0  0  0
  3  7  1  0  0  0  0
  8 11  4  0  0  0  0
  4  9  4  0  0  0  0
  9 14  4  0  0  0  0
  4 10  4  0  0  0  0
  6 11  4  0  0  0  0
  8 12  4  0  0  0  0
 12 13  4  0  0  0  0
 11 14  4  0  0  0  0
 13 14  4  0  0  0  0
  7 15  1  0  0  0  0
 15 16  1  0  0  0  0
 15 17  1  0  0  0  0
M  END
>  <pdb_header>
HEADER    ----                                    18-MAY-20                     
TITLE     ---                                                                   
EXPDTA    X-RAY DIFFRACTION                                                     
REMARK --------------------- added by autoBUSTER ---------------------------------START
REMARK run at   = Mon Mar 27 16:43:14 BST 2023
REMARK     in   = /dls/labxchem/data/lb32627/lb32627-1/processing/analysis/model_building/SARS2_Mac1A-A0594
REMARK     user = ill13029
REMARK     cmd  = \
REMARK            /dls_sw/apps/GPhL/BUSTER/20221121/autoBUSTER/bin/linux64/refine \
REMARK            -p \
REMARK            /dls/labxchem/data/lb32627/lb32627-1/processing/analysis/model_building/SARS2_Mac1A-A0594/cootOut/Refi
REMARK            -m \
REMARK            /dls/labxchem/data/lb32627/lb32627-1/processing/analysis/model_building/SARS2_Mac1A-A0594/SARS2_Mac1A-
REMARK            -l \
REMARK            /dls/labxchem/data/lb32627/lb32627-1/processing/analysis/model_building/SARS2_Mac1A-A0594/ASAP-0000452
REMARK            -autoncs -M ADP -d Refine_4
REMARK Files used:
REMARK   PDB              = Refine_4/pdbchk.pdb
REMARK   MTZ              = /dls/labxchem/data/lb32627/lb32627-1/processing/analysis/model_building/SARS2_Mac1A-A0594/SA
REMARK output written to subdirectory = Refine_4
REMARK best refinement for F,SIGF with R/Rfree 0.1790/0.2228
REMARK header records are copied from input PDB file (apart from REMARK 3!)
REMARK --------------------- added by autoBUSTER -----------------------------------END
REMARK --------------------- added by autoBUSTER -------------------------------
REMARK run at   = Wed Dec  7 16:39:19 GMT 2022                                  
REMARK     in   = /dls/labxchem/data/lb32627/lb32627-1/processing/analysis/model
REMARK     user = ill13029                                                      
REMARK     cmd  = \                                                             
REMARK            /dls_sw/apps/GPhL/BUSTER/20220608/autoBUSTER/bin/linux64/refin
REMARK            -p \                                                          
REMARK            /dls/labxchem/data/lb32627/lb32627-1/processing/analysis/model
REMARK            -m \                                                          
REMARK            /dls/labxchem/data/lb32627/lb32627-1/processing/analysis/model
REMARK            -l \                                                          
REMARK            /dls/labxchem/data/lb32627/lb32627-1/processing/analysis/model
REMARK            -autoncs -M ADP -d Refine_3                                   
REMARK Files used:                                                              
REMARK   PDB              = Refine_3/pdbchk.pdb                                 
REMARK   MTZ              = /dls/labxchem/data/lb32627/lb32627-1/processing/anal
REMARK output written to subdirectory = Refine_3                                
REMARK best refinement for F,SIGF with R/Rfree 0.1790/0.2224                    
REMARK header records are copied from input PDB file (apart from REMARK 3!)     
REMARK --------------------- added by autoBUSTER -------------------------------
REMARK --------------------- added by autoBUSTER -------------------------------
REMARK run at   = Wed Dec  7 14:55:42 GMT 2022                                  
REMARK     in   = /dls/labxchem/data/lb32627/lb32627-1/processing/analysis/model
REMARK     user = ill13029                                                      
REMARK     cmd  = \                                                             
REMARK            /dls_sw/apps/GPhL/BUSTER/20220608/autoBUSTER/bin/linux64/refin
REMARK            -p \                                                          
REMARK            /dls/labxchem/data/lb32627/lb32627-1/processing/analysis/model
REMARK            -m \                                                          
REMARK            /dls/labxchem/data/lb32627/lb32627-1/processing/analysis/model
REMARK            -l \                                                          
REMARK            /dls/labxchem/data/lb32627/lb32627-1/processing/analysis/model
REMARK            -autoncs -M ADP -d Refine_2                                   
REMARK Files used:                                                              
REMARK   PDB              = Refine_2/pdbchk.pdb                                 
REMARK   MTZ              = /dls/labxchem/data/lb32627/lb32627-1/processing/anal
REMARK output written to subdirectory = Refine_2                                
REMARK best refinement for F,SIGF with R/Rfree 0.1793/0.2213                    
REMARK header records are copied from input PDB file (apart from REMARK 3!)     
REMARK --------------------- added by autoBUSTER -------------------------------
REMARK --------------------- added by autoBUSTER -------------------------------
REMARK run at   = Tue Nov 29 13:56:20 GMT 2022                                  
REMARK     in   = /dls/labxchem/data/lb32627/lb32627-1/processing/analysis/model
REMARK     user = ill13029                                                      
REMARK     cmd  = \                                                             
REMARK            /dls_sw/apps/GPhL/BUSTER/20220608/autoBUSTER/bin/linux64/refin
REMARK            -p \                                                          
REMARK            /dls/labxchem/data/lb32627/lb32627-1/processing/analysis/model
REMARK            -m \                                                          
REMARK            /dls/labxchem/data/lb32627/lb32627-1/processing/analysis/model
REMARK            -l \                                                          
REMARK            /dls/labxchem/data/lb32627/lb32627-1/processing/analysis/model
REMARK            -autoncs -M TLSbasic -d Refine_1                              
REMARK Files used:                                                              
REMARK   PDB              = Refine_1/pdbchk.pdb                                 
REMARK   MTZ              = /dls/labxchem/data/lb32627/lb32627-1/processing/anal
REMARK output written to subdirectory = Refine_1                                
REMARK best refinement for F,SIGF with R/Rfree 0.1909/0.2147                    
REMARK header records are copied from input PDB file (apart from REMARK 3!)     
REMARK --------------------- added by autoBUSTER -------------------------------
REMARK   2                                                            
REMARK   2 RESOLUTION.    1.16 ANGSTROMS.
REMARK   3
REMARK   3 REFINEMENT.
REMARK   3   PROGRAM     : BUSTER 2.10.4 (21-NOV-2022)
REMARK   3   AUTHORS     : BRICOGNE,BLANC,BRANDL,FLENSBURG,KELLER,
REMARK   3               : PACIOREK,ROVERSI,SHARFF,SMART,VONRHEIN,WOMACK;
REMARK   3               : MATTHEWS,TEN EYCK,TRONRUD
REMARK   3
REMARK   3  DATA USED IN REFINEMENT.
REMARK   3   RESOLUTION RANGE HIGH (ANGSTROMS) : 1.158
REMARK   3   RESOLUTION RANGE LOW  (ANGSTROMS) : 89.00
REMARK   3   DATA CUTOFF            (SIGMA(F)) : 0.000
REMARK   3   COMPLETENESS FOR RANGE        (%) : 83.0
REMARK   3   NUMBER OF REFLECTIONS             : 89489
REMARK   3
REMARK   3  FIT TO DATA USED IN REFINEMENT.
REMARK   3   CROSS-VALIDATION METHOD          : THROUGHOUT
REMARK   3   FREE R VALUE TEST SET SELECTION  : RANDOM
REMARK   3   R VALUE     (WORKING + TEST SET) : 0.1811
REMARK   3   R VALUE            (WORKING SET) : 0.1790
REMARK   3   FREE R VALUE                     : 0.2228
REMARK   3   FREE R VALUE TEST SET SIZE   (%) : 4.970
REMARK   3   FREE R VALUE TEST SET COUNT      : 4451
REMARK   3   ESTIMATED ERROR OF FREE R VALUE  : NULL
REMARK   3
REMARK   3  FIT IN THE HIGHEST RESOLUTION BIN.
REMARK   3   TOTAL NUMBER OF BINS USED           : 51
REMARK   3   BIN RESOLUTION RANGE HIGH       (A) : 1.16
REMARK   3   BIN RESOLUTION RANGE LOW        (A) : 1.19
REMARK   3   BIN COMPLETENESS (WORKING+TEST) (%) : 22.65
REMARK   3   REFLECTIONS IN BIN   (WORKING+TEST) : 1790
REMARK   3   BIN R VALUE          (WORKING+TEST) : 0.4336
REMARK   3   REFLECTIONS IN BIN    (WORKING SET) : 1717
REMARK   3   BIN R VALUE           (WORKING SET) : 0.4321
REMARK   3   BIN FREE R VALUE                    : 0.4695
REMARK   3   BIN FREE R VALUE TEST SET SIZE  (%) : 4.08
REMARK   3   BIN FREE R VALUE TEST SET COUNT     : 73
REMARK   3   ESTIMATED ERROR OF BIN FREE R VALUE : NULL
REMARK   3
REMARK   3  NUMBER OF NON-HYDROGEN ATOMS USED IN REFINEMENT.
REMARK   3   PROTEIN ATOMS            : 2519
REMARK   3   NUCLEIC ACID ATOMS       : 0
REMARK   3   HETEROGEN ATOMS          : 17
REMARK   3   SOLVENT ATOMS            : 406
REMARK   3
REMARK   3  B VALUES.
REMARK   3   FROM WILSON PLOT           (A**2) : 15.10
REMARK   3   MEAN B VALUE      (OVERALL, A**2) : 22.33
REMARK   3   OVERALL ANISOTROPIC B VALUE.
REMARK   3    B11 (A**2) : 5.01640
REMARK   3    B22 (A**2) : 5.01640
REMARK   3    B33 (A**2) : -10.03290
REMARK   3    B12 (A**2) : 0.00000
REMARK   3    B13 (A**2) : 0.00000
REMARK   3    B23 (A**2) : 0.00000
REMARK   3
REMARK   3  ESTIMATED COORDINATE ERROR.
REMARK   3   ESD FROM LUZZATI PLOT                    (A) : 0.16
REMARK   3   DPI (BLOW EQ-10) BASED ON R VALUE        (A) : 0.046
REMARK   3   DPI (BLOW EQ-9) BASED ON FREE R VALUE    (A) : 0.052
REMARK   3   DPI (CRUICKSHANK) BASED ON R VALUE       (A) : 0.043
REMARK   3   DPI (CRUICKSHANK) BASED ON FREE R VALUE  (A) : 0.050
REMARK   3
REMARK   3   REFERENCES: BLOW, D. (2002) ACTA CRYST D58, 792-797
REMARK   3               CRUICKSHANK, D.W.J. (1999) ACTA CRYST D55, 583-601
REMARK   3
REMARK   3  CORRELATION COEFFICIENTS.
REMARK   3   CORRELATION COEFFICIENT FO-FC      : 0.896
REMARK   3   CORRELATION COEFFICIENT FO-FC FREE : 0.837
REMARK   3
REMARK   3  X-RAY WEIGHT : 5.19
REMARK   3
REMARK   3  GEOMETRY FUNCTION.                                                  
REMARK   3   RESTRAINT LIBRARIES.                                               
REMARK   3    NUMBER OF LIBRARIES USED :   8                                    
REMARK   3    LIBRARY  1 : protgeo_eh99.dat (V1.6.4.20) 20220523  STANDARD      
REMARK   3                 AMINO ACID DICTIONARY. BONDS AND ANGLES FROM         
REMARK   3                 ENGH AND HUBER EH99. OTHER VALUES BASED ON           
REMARK   3                 PREVIOUS TNT OR TAKEN FROM CCP4. INCLUDES            
REMARK   3                 HYDROGEN ATOMS.                                      
REMARK   3    LIBRARY  2 : exoticaa.dat (V1.3.4.16) 20220523  COLLECTION        
REMARK   3                 OF NON-STANDARD AMINO ACIDS, MAINLY EH91             
REMARK   3                 WITHOUT IDEAL DISTANCE INFO                          
REMARK   3    LIBRARY  3 : nuclgeo.dat (V1.13.4.9) 20221011                     
REMARK   3    LIBRARY  4 : bcorrel.dat (V1.15.10.2) 20190616                    
REMARK   3    LIBRARY  5 : contact.dat (V1.15.12.10) 20191121                   
REMARK   3    LIBRARY  6 : idealdist_contact.dat (V1.3.4.13) 20220125           
REMARK   3                 IDEAL-DISTANCE CONTACT TERM DATA AS USED IN          
REMARK   3                 PROLSQ. VALUES USED HERE ARE BASED ON DATA           
REMARK   3                 HARVESTING OF PDB AS OF 20190109.                    
REMARK   3    LIBRARY  7 : restraints for LIG (unknown) from cif                
REMARK   3                 dictionary ASAP-0000452-001.cif; generated by        
REMARK   3                 GRADE 1.2.21 (Feb 03 2022) from SMILES               
REMARK   3                 CC(C)[C@@H](Nc1ncnc2[nH]ccc12)C(F)F using MOGUL      
REMARK   3                 1.8.5(274361), CSD as541be, with quantum             
REMARK   3                 mechanics RM1                                        
REMARK   3    LIBRARY  8 : assume.dat (V1.9.4.3) 20221011                       
REMARK   3                                                                      
REMARK   3   NUMBER OF GEOMETRIC FUNCTION TERMS DEFINED : 15                    
REMARK   3   TERM                          COUNT    WEIGHT   FUNCTION.          
REMARK   3    BOND LENGTHS              :   2624 ;   2.00 ;  HARMONIC           
REMARK   3    BOND ANGLES               :   3577 ;   2.00 ;  HARMONIC           
REMARK   3    TORSION ANGLES            :    900 ;   2.00 ;  SINUSOIDAL         
REMARK   3    TRIGONAL CARBON PLANES    :   NULL ;   NULL ;  NULL               
REMARK   3    GENERAL PLANES            :    468 ;   5.00 ;  HARMONIC           
REMARK   3    ISOTROPIC THERMAL FACTORS :   2606 ;  10.00 ;  HARMONIC           
REMARK   3    BAD NON-BONDED CONTACTS   :   NULL ;   NULL ;  NULL               
REMARK   3    IMPROPER TORSIONS         :   NULL ;   NULL ;  NULL               
REMARK   3    PSEUDOROTATION ANGLES     :   NULL ;   NULL ;  NULL               
REMARK   3    CHIRAL IMPROPER TORSION   :    339 ;   5.00 ;  SEMIHARMONIC       
REMARK   3    SUM OF OCCUPANCIES        :   NULL ;   NULL ;  NULL               
REMARK   3    UTILITY DISTANCES         :   NULL ;   NULL ;  NULL               
REMARK   3    UTILITY ANGLES            :   NULL ;   NULL ;  NULL               
REMARK   3    UTILITY TORSION           :   NULL ;   NULL ;  NULL               
REMARK   3    IDEAL-DIST CONTACT TERM   :   2643 ;   4.00 ;  SEMIHARMONIC       
REMARK   3                                                                      
REMARK   3   RMS DEVIATIONS FROM IDEAL VALUES.                                  
REMARK   3   BOND LENGTHS                       (A) : 0.014                     
REMARK   3   BOND ANGLES                  (DEGREES) : 1.24                      
REMARK   3   PEPTIDE OMEGA TORSION ANGLES (DEGREES) : 5.37                      
REMARK   3   OTHER TORSION ANGLES         (DEGREES) : 14.14                     
REMARK   3                                                                      
REMARK   3   SIMILARITY.                                                        
REMARK   3    NCS.                                                              
REMARK   3     NCS METHOD: RESTRAINT LSSR (-AUTONCS)                            
REMARK   3    TARGET RESTRAINTS.                                                
REMARK   3     TARGET REPRESENTATION : NONE                                     
REMARK   3     TARGET STRUCTURE : NULL                                          
REMARK   3                                                                      
REMARK   3  TLS DETAILS.                                                        
REMARK   3   NUMBER OF TLS GROUPS  :            0                               
REMARK   3                                                                      
REMARK   3  REFINEMENT NOTES.                                                   
REMARK   3   NUMBER OF REFINEMENT NOTES :   1                                   
REMARK   3   NOTE   1 : IDEAL-DIST CONTACT TERM CONTACT SETUP. ALL ATOMS        
REMARK   3               HAVE CCP4 ATOM TYPE FROM LIBRARY                       
REMARK   3
REMARK   3  OTHER REFINEMENT REMARKS: NULL
REMARK   3
REMARK 290                                                            
REMARK 290 CRYSTALLOGRAPHIC SYMMETRY                                  
REMARK 290 SYMMETRY OPERATORS FOR SPACE GROUP: P 43                   
REMARK 290                                                            
REMARK 290      SYMOP   SYMMETRY                                      
REMARK 290     NNNMMM   OPERATOR                                      
REMARK 290       1555   X,Y,Z                                         
REMARK 290       2555   -X,-Y,1/2+Z                                   
REMARK 290       3555   -Y,X,3/4+Z                                    
REMARK 290       4555   Y,-X,1/4+Z                                    
REMARK 290                                                            
REMARK 290     WHERE NNN -> OPERATOR NUMBER                           
REMARK 290           MMM -> TRANSLATION VECTOR                        
REMARK 290                                                            
REMARK 290 CRYSTALLOGRAPHIC SYMMETRY TRANSFORMATIONS                  
REMARK 290 THE FOLLOWING TRANSFORMATIONS OPERATE ON THE ATOM/HETATM   
REMARK 290 RECORDS IN THIS ENTRY TO PRODUCE CRYSTALLOGRAPHICALLY      
REMARK 290 RELATED MOLECULES.                                         
REMARK 290   SMTRY1   1  1.000000  0.000000  0.000000        0.00000
REMARK 290   SMTRY2   1  0.000000  1.000000  0.000000        0.00000
REMARK 290   SMTRY3   1  0.000000  0.000000  1.000000        0.00000
REMARK 290   SMTRY1   2 -1.000000  0.000000  0.000000        0.00000
REMARK 290   SMTRY2   2  0.000000 -1.000000  0.000000        0.00000
REMARK 290   SMTRY3   2  0.000000  0.000000  1.000000       19.74000
REMARK 290   SMTRY1   3  0.000000 -1.000000  0.000000        0.00000
REMARK 290   SMTRY2   3  1.000000  0.000000  0.000000        0.00000
REMARK 290   SMTRY3   3  0.000000  0.000000  1.000000       29.61000
REMARK 290   SMTRY1   4  0.000000  1.000000  0.000000        0.00000
REMARK 290   SMTRY2   4 -1.000000  0.000000  0.000000        0.00000
REMARK 290   SMTRY3   4  0.000000  0.000000  1.000000        9.87000
REMARK 290                                                            
REMARK 290 REMARK: NULL                                               
REMARK 300
REMARK 300 BIOMOLECULE: 1, 2
REMARK 300 SEE REMARK 350 FOR THE AUTHOR PROVIDED AND/OR PROGRAM
REMARK 300 GENERATED ASSEMBLY INFORMATION FOR THE STRUCTURE IN
REMARK 300 THIS ENTRY. THE REMARK MAY ALSO  PROVIDE INFORMATION ON
REMARK 300 BURIED SURFACE AREA.
REMARK 350
REMARK 350 COORDINATES FOR A COMPLETE MULTIMER REPRESENTING THE KNOWN
REMARK 350 BIOLOGICALLY SIGNIFICANT OLIGOMERIZATION STATE OF THE
REMARK 350 MOLECULE CAN BE GENERATED BY APPLYING BIOMT TRANSFORMATIONS
REMARK 350 GIVEN BELOW. BOTH NON-CRYSTALLOGRAPHIC AND
REMARK 350 CRYSTALLOGRAPHIC OPERATIONS ARE GIVEN.
REMARK 350
REMARK 350 BIOMOLECULE: 1
REMARK 350 SOFTWARE DETERMINED QUATERNARY STRUCTURE: MONOMERIC
REMARK 350 SOFTWARE USED: PISA
REMARK 350 SURFACE AREA OF THE MONOMER: 7799 ANGSTROM**2
REMARK 350 FREE ENERGY OF FOLDING: -155.6 KCAL/MOL
REMARK 350 APPLY THE FOLLOWING TO CHAINS: A,W
REMARK 350   BIOMT1   1  1.000000  0.000000  0.000000        0.00000
REMARK 350   BIOMT2   1  0.000000  1.000000  0.000000        0.00000
REMARK 350   BIOMT3   1  0.000000  0.000000  1.000000        0.00000
REMARK 350
REMARK 350 BIOMOLECULE: 2
REMARK 350 SOFTWARE DETERMINED QUATERNARY STRUCTURE: MONOMERIC
REMARK 350 SOFTWARE USED: PISA
REMARK 350 SURFACE AREA OF THE MONOMER: 8115 ANGSTROM**2
REMARK 350 FREE ENERGY OF FOLDING: -156.7 KCAL/MOL
REMARK 350 APPLY THE FOLLOWING TO CHAINS: B,W
REMARK 350   BIOMT1   1  1.000000  0.000000  0.000000        0.00000
REMARK 350   BIOMT2   1  0.000000  1.000000  0.000000        0.00000
REMARK 350   BIOMT3   1  0.000000  0.000000  1.000000        0.00000
CRYST1   88.995   88.995   39.480  90.00  90.00  90.00 P 43                     


$$$$
SARS2_Mac1A-A0595
  PyMOL3.0          3D                             0

 16 17  0  0  0  0  0  0  0  0999 V2000
   -0.5920   14.0960   -2.2460 N   0  0  0  0  0  0  0  0  0  0  0  0
    2.5460   13.4480   -4.3250 C   0  0  0  0  0  0  0  0  0  0  0  0
   -0.2220   11.3280   -1.8600 O   0  0  0  0  0  0  0  0  0  0  0  0
    1.2360   14.1110   -3.9490 C   0  0  0  0  0  0  0  0  0  0  0  0
    0.2610   14.2440   -0.0840 N   0  0  0  0  0  0  0  0  0  0  0  0
    1.3680   15.6190   -3.8390 C   0  0  0  0  0  0  0  0  0  0  0  0
   -1.0170   15.0880    1.8030 N   0  0  0  0  0  0  0  0  0  0  0  0
    0.6370   13.4260   -2.7190 C   0  0  0  0  0  0  0  0  0  0  0  0
   -3.2870   15.7430    1.2180 N   0  0  0  0  0  0  0  0  0  0  0  0
    0.3610   11.9540   -2.9730 C   0  0  0  0  0  0  0  0  0  0  0  0
   -0.7620   14.4560   -0.9390 C   0  0  0  0  0  0  0  0  0  0  0  0
    0.0810   14.5970    1.2090 C   0  0  0  0  0  0  0  0  0  0  0  0
   -2.0390   15.2570    0.9230 C   0  0  0  0  0  0  0  0  0  0  0  0
   -3.9940   15.8420    0.0420 C   0  0  0  0  0  0  0  0  0  0  0  0
   -3.2440   15.4000   -0.9990 C   0  0  0  0  0  0  0  0  0  0  0  0
   -1.9770   15.0130   -0.4570 C   0  0  0  0  0  0  0  0  0  0  0  0
  1 11  1  0  0  0  0
  3 10  1  0  0  0  0
  2  4  1  0  0  0  0
  4  6  1  0  0  0  0
  7 12  4  0  0  0  0
  1  8  1  0  0  0  0
  4  8  1  0  0  0  0
  9 13  4  0  0  0  0
  8 10  1  0  0  0  0
  5 11  4  0  0  0  0
 11 16  4  0  0  0  0
  5 12  4  0  0  0  0
  7 13  4  0  0  0  0
  9 14  4  0  0  0  0
 14 15  4  0  0  0  0
 13 16  4  0  0  0  0
 15 16  4  0  0  0  0
M  END
>  <pdb_header>
REMARK --------------------- added by autoBUSTER ---------------------------------START
REMARK run at   = Mon Mar 27 16:43:24 BST 2023
REMARK     in   = /dls/labxchem/data/lb32627/lb32627-1/processing/analysis/model_building/SARS2_Mac1A-A0595
REMARK     user = ill13029
REMARK     cmd  = \
REMARK            /dls_sw/apps/GPhL/BUSTER/20221121/autoBUSTER/bin/linux64/refine \
REMARK            -p \
REMARK            /dls/labxchem/data/lb32627/lb32627-1/processing/analysis/model_building/SARS2_Mac1A-A0595/cootOut/Refine_5/in.pdb \
REMARK            -m \
REMARK            /dls/labxchem/data/lb32627/lb32627-1/processing/analysis/model_building/SARS2_Mac1A-A0595/SARS2_Mac1A-A0595.free.mtz \
REMARK            -l \
REMARK            /dls/labxchem/data/lb32627/lb32627-1/processing/analysis/model_building/SARS2_Mac1A-A0595/ASAP-0000453-001.cif \
REMARK            -autoncs -M ADP -d Refine_5
REMARK Files used:
REMARK   PDB              = Refine_5/pdbchk.pdb
REMARK   MTZ              = /dls/labxchem/data/lb32627/lb32627-1/processing/analysis/model_building/SARS2_Mac1A-A0595/SARS2_Mac1A-A0595.free.mtz
REMARK output written to subdirectory = Refine_5
REMARK best refinement for F,SIGF with R/Rfree 0.1588/0.1834
REMARK header records are copied from input PDB file (apart from REMARK 3!)
REMARK --------------------- added by autoBUSTER -----------------------------------END
REMARK --------------------- added by autoBUSTER -------------------------------
REMARK run at   = Wed Dec  7 16:40:28 GMT 2022                                  
REMARK     in   = /dls/labxchem/data/lb32627/lb32627-1/processing/analysis/model
REMARK     user = ill13029                                                      
REMARK     cmd  = \                                                             
REMARK            /dls_sw/apps/GPhL/BUSTER/20220608/autoBUSTER/bin/linux64/refin
REMARK            -p \                                                          
REMARK            /dls/labxchem/data/lb32627/lb32627-1/processing/analysis/model
REMARK            -m \                                                          
REMARK            /dls/labxchem/data/lb32627/lb32627-1/processing/analysis/model
REMARK            -l \                                                          
REMARK            /dls/labxchem/data/lb32627/lb32627-1/processing/analysis/model
REMARK            -autoncs -M ADP -B user -Gelly gelly.dat -d Refine_3          
REMARK Files used:                                                              
REMARK   PDB              = Refine_3/pdbchk.pdb                                 
REMARK   MTZ              = /dls/labxchem/data/lb32627/lb32627-1/processing/anal
REMARK   Gelly commands       = /dls/labxchem/data/lb32627/lb32627-1/processing/
REMARK output written to subdirectory = Refine_3                                
REMARK best refinement for F,SIGF with R/Rfree 0.1589/0.1829                    
REMARK header records are copied from input PDB file (apart from REMARK 3!)     
REMARK --------------------- added by autoBUSTER -------------------------------
REMARK --------------------- added by autoBUSTER -------------------------------
REMARK run at   = Wed Dec  7 15:01:07 GMT 2022                                  
REMARK     in   = /dls/labxchem/data/lb32627/lb32627-1/processing/analysis/model
REMARK     user = ill13029                                                      
REMARK     cmd  = \                                                             
REMARK            /dls_sw/apps/GPhL/BUSTER/20220608/autoBUSTER/bin/linux64/refin
REMARK            -p \                                                          
REMARK            /dls/labxchem/data/lb32627/lb32627-1/processing/analysis/model
REMARK            -m \                                                          
REMARK            /dls/labxchem/data/lb32627/lb32627-1/processing/analysis/model
REMARK            -l \                                                          
REMARK            /dls/labxchem/data/lb32627/lb32627-1/processing/analysis/model
REMARK            -autoncs -M ADP -d Refine_2                                   
REMARK Files used:                                                              
REMARK   PDB              = Refine_2/pdbchk.pdb                                 
REMARK   MTZ              = /dls/labxchem/data/lb32627/lb32627-1/processing/anal
REMARK output written to subdirectory = Refine_2                                
REMARK best refinement for F,SIGF with R/Rfree 0.1590/0.1833                    
REMARK header records are copied from input PDB file (apart from REMARK 3!)     
REMARK --------------------- added by autoBUSTER -------------------------------
REMARK --------------------- added by autoBUSTER -------------------------------
REMARK run at   = Tue Nov 29 13:56:13 GMT 2022                                  
REMARK     in   = /dls/labxchem/data/lb32627/lb32627-1/processing/analysis/model
REMARK     user = ill13029                                                      
REMARK     cmd  = \                                                             
REMARK            /dls_sw/apps/GPhL/BUSTER/20220608/autoBUSTER/bin/linux64/refin
REMARK            -p \                                                          
REMARK            /dls/labxchem/data/lb32627/lb32627-1/processing/analysis/model
REMARK            -m \                                                          
REMARK            /dls/labxchem/data/lb32627/lb32627-1/processing/analysis/model
REMARK            -l \                                                          
REMARK            /dls/labxchem/data/lb32627/lb32627-1/processing/analysis/model
REMARK            -autoncs -M TLSbasic -d Refine_1                              
REMARK Files used:                                                              
REMARK   PDB              = Refine_1/pdbchk.pdb                                 
REMARK   MTZ              = /dls/labxchem/data/lb32627/lb32627-1/processing/anal
REMARK output written to subdirectory = Refine_1                                
REMARK best refinement for F,SIGF with R/Rfree 0.1815/0.2018                    
REMARK header records are copied from input PDB file (apart from REMARK 3!)     
REMARK --------------------- added by autoBUSTER -------------------------------
HEADER    ----                                    18-MAY-20                     
TITLE     ---                                                                   
COMPND    ---                                                                   
EXPDTA    X-RAY DIFFRACTION
REMARK   2                                                            
REMARK   2 RESOLUTION.    1.15 ANGSTROMS.
REMARK   3
REMARK   3 REFINEMENT.
REMARK   3   PROGRAM     : BUSTER 2.10.4 (21-NOV-2022)
REMARK   3   AUTHORS     : BRICOGNE,BLANC,BRANDL,FLENSBURG,KELLER,
REMARK   3               : PACIOREK,ROVERSI,SHARFF,SMART,VONRHEIN,WOMACK;
REMARK   3               : MATTHEWS,TEN EYCK,TRONRUD
REMARK   3
REMARK   3  DATA USED IN REFINEMENT.
REMARK   3   RESOLUTION RANGE HIGH (ANGSTROMS) : 1.145
REMARK   3   RESOLUTION RANGE LOW  (ANGSTROMS) : 16.73
REMARK   3   DATA CUTOFF            (SIGMA(F)) : 0.000
REMARK   3   COMPLETENESS FOR RANGE        (%) : 84.0
REMARK   3   NUMBER OF REFLECTIONS             : 93813
REMARK   3
REMARK   3  FIT TO DATA USED IN REFINEMENT.
REMARK   3   CROSS-VALIDATION METHOD          : THROUGHOUT
REMARK   3   FREE R VALUE TEST SET SELECTION  : RANDOM
REMARK   3   R VALUE     (WORKING + TEST SET) : 0.1600
REMARK   3   R VALUE            (WORKING SET) : 0.1588
REMARK   3   FREE R VALUE                     : 0.1834
REMARK   3   FREE R VALUE TEST SET SIZE   (%) : 5.000
REMARK   3   FREE R VALUE TEST SET COUNT      : 4689
REMARK   3   ESTIMATED ERROR OF FREE R VALUE  : NULL
REMARK   3
REMARK   3  FIT IN THE HIGHEST RESOLUTION BIN.
REMARK   3   TOTAL NUMBER OF BINS USED           : 51
REMARK   3   BIN RESOLUTION RANGE HIGH       (A) : 1.15
REMARK   3   BIN RESOLUTION RANGE LOW        (A) : 1.19
REMARK   3   BIN COMPLETENESS (WORKING+TEST) (%) : 17.20
REMARK   3   REFLECTIONS IN BIN   (WORKING+TEST) : 1877
REMARK   3   BIN R VALUE          (WORKING+TEST) : 0.3370
REMARK   3   REFLECTIONS IN BIN    (WORKING SET) : 1792
REMARK   3   BIN R VALUE           (WORKING SET) : 0.3367
REMARK   3   BIN FREE R VALUE                    : 0.3437
REMARK   3   BIN FREE R VALUE TEST SET SIZE  (%) : 4.53
REMARK   3   BIN FREE R VALUE TEST SET COUNT     : 85
REMARK   3   ESTIMATED ERROR OF BIN FREE R VALUE : NULL
REMARK   3
REMARK   3  NUMBER OF NON-HYDROGEN ATOMS USED IN REFINEMENT.
REMARK   3   PROTEIN ATOMS            : 2519
REMARK   3   NUCLEIC ACID ATOMS       : 0
REMARK   3   HETEROGEN ATOMS          : 24
REMARK   3   SOLVENT ATOMS            : 455
REMARK   3
REMARK   3  B VALUES.
REMARK   3   FROM WILSON PLOT           (A**2) : 13.84
REMARK   3   MEAN B VALUE      (OVERALL, A**2) : 20.65
REMARK   3   OVERALL ANISOTROPIC B VALUE.
REMARK   3    B11 (A**2) : 2.71460
REMARK   3    B22 (A**2) : 2.71460
REMARK   3    B33 (A**2) : -5.42920
REMARK   3    B12 (A**2) : 0.00000
REMARK   3    B13 (A**2) : 0.00000
REMARK   3    B23 (A**2) : 0.00000
REMARK   3
REMARK   3  ESTIMATED COORDINATE ERROR.
REMARK   3   ESD FROM LUZZATI PLOT                    (A) : 0.12
REMARK   3   DPI (BLOW EQ-10) BASED ON R VALUE        (A) : 0.040
REMARK   3   DPI (BLOW EQ-9) BASED ON FREE R VALUE    (A) : 0.042
REMARK   3   DPI (CRUICKSHANK) BASED ON R VALUE       (A) : 0.037
REMARK   3   DPI (CRUICKSHANK) BASED ON FREE R VALUE  (A) : 0.040
REMARK   3
REMARK   3   REFERENCES: BLOW, D. (2002) ACTA CRYST D58, 792-797
REMARK   3               CRUICKSHANK, D.W.J. (1999) ACTA CRYST D55, 583-601
REMARK   3
REMARK   3  CORRELATION COEFFICIENTS.
REMARK   3   CORRELATION COEFFICIENT FO-FC      : 0.960
REMARK   3   CORRELATION COEFFICIENT FO-FC FREE : 0.963
REMARK   3
REMARK   3  X-RAY WEIGHT : 4.77
REMARK   3
REMARK   3  GEOMETRY FUNCTION.                                                  
REMARK   3   RESTRAINT LIBRARIES.                                               
REMARK   3    NUMBER OF LIBRARIES USED :   9                                    
REMARK   3    LIBRARY  1 : protgeo_eh99.dat (V1.6.4.20) 20220523  STANDARD      
REMARK   3                 AMINO ACID DICTIONARY. BONDS AND ANGLES FROM         
REMARK   3                 ENGH AND HUBER EH99. OTHER VALUES BASED ON           
REMARK   3                 PREVIOUS TNT OR TAKEN FROM CCP4. INCLUDES            
REMARK   3                 HYDROGEN ATOMS.                                      
REMARK   3    LIBRARY  2 : exoticaa.dat (V1.3.4.16) 20220523  COLLECTION        
REMARK   3                 OF NON-STANDARD AMINO ACIDS, MAINLY EH91             
REMARK   3                 WITHOUT IDEAL DISTANCE INFO                          
REMARK   3    LIBRARY  3 : nuclgeo.dat (V1.13.4.9) 20221011                     
REMARK   3    LIBRARY  4 : bcorrel.dat (V1.15.10.2) 20190616                    
REMARK   3    LIBRARY  5 : contact.dat (V1.15.12.10) 20191121                   
REMARK   3    LIBRARY  6 : idealdist_contact.dat (V1.3.4.13) 20220125           
REMARK   3                 IDEAL-DISTANCE CONTACT TERM DATA AS USED IN          
REMARK   3                 PROLSQ. VALUES USED HERE ARE BASED ON DATA           
REMARK   3                 HARVESTING OF PDB AS OF 20190109.                    
REMARK   3    LIBRARY  7 : restraints for LIG (unknown) from cif                
REMARK   3                 dictionary ASAP-0000453-001.cif; generated by        
REMARK   3                 GRADE 1.2.21 (Feb 03 2022) from SMILES               
REMARK   3                 CC(C)[C@H](CO)Nc1ncnc2[nH]ccc12 using MOGUL          
REMARK   3                 1.8.5(274361), CSD as541be, with quantum             
REMARK   3                 mechanics RM1                                        
REMARK   3    LIBRARY  8 : restraints for DMS (DIMETHYL SULFOXIDE) from         
REMARK   3                 cif dictionary DMS.cif; generated by grade2          
REMARK   3                 version 1.1.0a7 from                                 
REMARK   3                 PDB_chemical_components_definition_file              
REMARK   3                 ftp://ftp.ebi.ac.uk/pub/databases/msd/pdbechem_v     
REMARK   3                 2/D/DMS/DMS.cif using RDKit 2021.03.4                
REMARK   3                 ((DatabaseID PDB-DMS))                               
REMARK   3    LIBRARY  9 : assume.dat (V1.9.4.3) 20221011                       
REMARK   3                                                                      
REMARK   3   NUMBER OF GEOMETRIC FUNCTION TERMS DEFINED : 15                    
REMARK   3   TERM                          COUNT    WEIGHT   FUNCTION.          
REMARK   3    BOND LENGTHS              :   2629 ;   2.00 ;  HARMONIC           
REMARK   3    BOND ANGLES               :   3581 ;   2.00 ;  HARMONIC           
REMARK   3    TORSION ANGLES            :    900 ;   2.00 ;  SINUSOIDAL         
REMARK   3    TRIGONAL CARBON PLANES    :   NULL ;   NULL ;  NULL               
REMARK   3    GENERAL PLANES            :    468 ;   5.00 ;  HARMONIC           
REMARK   3    ISOTROPIC THERMAL FACTORS :   2606 ;  10.00 ;  HARMONIC           
REMARK   3    BAD NON-BONDED CONTACTS   :   NULL ;   NULL ;  NULL               
REMARK   3    IMPROPER TORSIONS         :   NULL ;   NULL ;  NULL               
REMARK   3    PSEUDOROTATION ANGLES     :   NULL ;   NULL ;  NULL               
REMARK   3    CHIRAL IMPROPER TORSION   :    339 ;   5.00 ;  SEMIHARMONIC       
REMARK   3    SUM OF OCCUPANCIES        :   NULL ;   NULL ;  NULL               
REMARK   3    UTILITY DISTANCES         :   NULL ;   NULL ;  NULL               
REMARK   3    UTILITY ANGLES            :   NULL ;   NULL ;  NULL               
REMARK   3    UTILITY TORSION           :   NULL ;   NULL ;  NULL               
REMARK   3    IDEAL-DIST CONTACT TERM   :   2758 ;   4.00 ;  SEMIHARMONIC       
REMARK   3                                                                      
REMARK   3   RMS DEVIATIONS FROM IDEAL VALUES.                                  
REMARK   3   BOND LENGTHS                       (A) : 0.014                     
REMARK   3   BOND ANGLES                  (DEGREES) : 1.27                      
REMARK   3   PEPTIDE OMEGA TORSION ANGLES (DEGREES) : 5.49                      
REMARK   3   OTHER TORSION ANGLES         (DEGREES) : 14.15                     
REMARK   3                                                                      
REMARK   3   SIMILARITY.                                                        
REMARK   3    NCS.                                                              
REMARK   3     NCS METHOD: RESTRAINT LSSR (-AUTONCS)                            
REMARK   3    TARGET RESTRAINTS.                                                
REMARK   3     TARGET REPRESENTATION : NONE                                     
REMARK   3     TARGET STRUCTURE : NULL                                          
REMARK   3                                                                      
REMARK   3  TLS DETAILS.                                                        
REMARK   3   NUMBER OF TLS GROUPS  :            0                               
REMARK   3                                                                      
REMARK   3  REFINEMENT NOTES.                                                   
REMARK   3   NUMBER OF REFINEMENT NOTES :   1                                   
REMARK   3   NOTE   1 : IDEAL-DIST CONTACT TERM CONTACT SETUP. ALL ATOMS        
REMARK   3               HAVE CCP4 ATOM TYPE FROM LIBRARY                       
REMARK   3
REMARK   3  OTHER REFINEMENT REMARKS: NULL
REMARK   3
REMARK 290                                                            
REMARK 290 CRYSTALLOGRAPHIC SYMMETRY                                  
REMARK 290 SYMMETRY OPERATORS FOR SPACE GROUP: P 43                   
REMARK 290                                                            
REMARK 290      SYMOP   SYMMETRY                                      
REMARK 290     NNNMMM   OPERATOR                                      
REMARK 290       1555   X,Y,Z                                         
REMARK 290       2555   -X,-Y,1/2+Z                                   
REMARK 290       3555   -Y,X,3/4+Z                                    
REMARK 290       4555   Y,-X,1/4+Z                                    
REMARK 290                                                            
REMARK 290     WHERE NNN -> OPERATOR NUMBER                           
REMARK 290           MMM -> TRANSLATION VECTOR                        
REMARK 290                                                            
REMARK 290 CRYSTALLOGRAPHIC SYMMETRY TRANSFORMATIONS                  
REMARK 290 THE FOLLOWING TRANSFORMATIONS OPERATE ON THE ATOM/HETATM   
REMARK 290 RECORDS IN THIS ENTRY TO PRODUCE CRYSTALLOGRAPHICALLY      
REMARK 290 RELATED MOLECULES.                                         
REMARK 290   SMTRY1   1  1.000000  0.000000  0.000000        0.00000
REMARK 290   SMTRY2   1  0.000000  1.000000  0.000000        0.00000
REMARK 290   SMTRY3   1  0.000000  0.000000  1.000000        0.00000
REMARK 290   SMTRY1   2 -1.000000  0.000000  0.000000        0.00000
REMARK 290   SMTRY2   2  0.000000 -1.000000  0.000000        0.00000
REMARK 290   SMTRY3   2  0.000000  0.000000  1.000000       19.74750
REMARK 290   SMTRY1   3  0.000000 -1.000000  0.000000        0.00000
REMARK 290   SMTRY2   3  1.000000  0.000000  0.000000        0.00000
REMARK 290   SMTRY3   3  0.000000  0.000000  1.000000       29.62125
REMARK 290   SMTRY1   4  0.000000  1.000000  0.000000        0.00000
REMARK 290   SMTRY2   4 -1.000000  0.000000  0.000000        0.00000
REMARK 290   SMTRY3   4  0.000000  0.000000  1.000000        9.87375
REMARK 290                                                            
REMARK 290 REMARK: NULL                                               
CRYST1   89.078   89.078   39.495  90.00  90.00  90.00 P 43           



$$$$
SARS2_Mac1A-A0604
  PyMOL3.0          3D                             0

 17 18  0  0  0  0  0  0  0  0999 V2000
   -0.7930   14.4670   -2.3320 N   0  0  0  0  0  0  0  0  0  0  0  0
    2.0150   13.1330   -4.5250 C   0  0  0  0  0  0  0  0  0  0  0  0
    0.1780   11.2390   -2.4370 O   0  0  0  0  0  0  0  0  0  0  0  0
    0.8620   14.0590   -4.1940 C   0  0  0  0  0  0  0  0  0  0  0  0
    0.0980   14.3580   -0.1910 N   0  0  0  0  0  0  0  0  0  0  0  0
    1.3100   15.5070   -4.1060 C   0  0  0  0  0  0  0  0  0  0  0  0
   -1.1050   15.1390    1.7560 N   0  0  0  0  0  0  0  0  0  0  0  0
    0.2260   13.5900   -2.8760 C   0  0  0  0  0  0  0  0  0  0  0  0
   -3.3640   15.9020    1.2870 N   0  0  0  0  0  0  0  0  0  0  0  0
   -0.9380   14.6920   -1.0030 C   0  0  0  0  0  0  0  0  0  0  0  0
   -1.4630   12.0990   -3.7740 N   0  0  0  0  0  0  0  0  0  0  0  0
   -0.0450   14.6240    1.1220 C   0  0  0  0  0  0  0  0  0  0  0  0
   -2.1390   15.4100    0.9200 C   0  0  0  0  0  0  0  0  0  0  0  0
   -4.1210   16.0510    0.1500 C   0  0  0  0  0  0  0  0  0  0  0  0
   -3.4100   15.6810   -0.9430 C   0  0  0  0  0  0  0  0  0  0  0  0
   -2.1290   15.2520   -0.4720 C   0  0  0  0  0  0  0  0  0  0  0  0
   -0.3580   12.1980   -3.0300 C   0  0  0  0  0  0  0  0  0  0  0  0
  1 10  1  0  0  0  0
  3 17  2  0  0  0  0
  2  4  1  0  0  0  0
  4  6  1  0  0  0  0
  7 12  4  0  0  0  0
  1  8  1  0  0  0  0
  4  8  1  0  0  0  0
  9 13  4  0  0  0  0
  5 10  4  0  0  0  0
 10 16  4  0  0  0  0
  5 12  4  0  0  0  0
  7 13  4  0  0  0  0
  9 14  4  0  0  0  0
 14 15  4  0  0  0  0
 13 16  4  0  0  0  0
 15 16  4  0  0  0  0
  8 17  1  0  0  0  0
 11 17  1  0  0  0  0
M  END
>  <pdb_header>
HEADER    ----                                    18-MAY-20                     
TITLE     ---                                                                   
EXPDTA    X-RAY DIFFRACTION                                                     
REMARK --------------------- added by autoBUSTER ---------------------------------START
REMARK run at   = Mon Mar 27 16:43:31 BST 2023
REMARK     in   = /dls/labxchem/data/lb32627/lb32627-1/processing/analysis/model_building/SARS2_Mac1A-A0604
REMARK     user = ill13029
REMARK     cmd  = \
REMARK            /dls_sw/apps/GPhL/BUSTER/20221121/autoBUSTER/bin/linux64/refine \
REMARK            -p \
REMARK            /dls/labxchem/data/lb32627/lb32627-1/processing/analysis/model_building/SARS2_Mac1A-A0604/cootOut/Refi
REMARK            -m \
REMARK            /dls/labxchem/data/lb32627/lb32627-1/processing/analysis/model_building/SARS2_Mac1A-A0604/SARS2_Mac1A-
REMARK            -l \
REMARK            /dls/labxchem/data/lb32627/lb32627-1/processing/analysis/model_building/SARS2_Mac1A-A0604/ASAP-0000462
REMARK            -autoncs -M ADP -d Refine_7
REMARK Files used:
REMARK   PDB              = Refine_7/pdbchk.pdb
REMARK   MTZ              = /dls/labxchem/data/lb32627/lb32627-1/processing/analysis/model_building/SARS2_Mac1A-A0604/SA
REMARK output written to subdirectory = Refine_7
REMARK best refinement for F,SIGF with R/Rfree 0.1557/0.1798
REMARK header records are copied from input PDB file (apart from REMARK 3!)
REMARK --------------------- added by autoBUSTER -----------------------------------END
REMARK --------------------- added by autoBUSTER -------------------------------
REMARK run at   = Thu Dec 15 10:16:44 GMT 2022                                  
REMARK     in   = /dls/labxchem/data/lb32627/lb32627-1/processing/analysis/model
REMARK     user = ejx48977                                                      
REMARK     cmd  = \                                                             
REMARK            /dls_sw/apps/GPhL/BUSTER/20220608/autoBUSTER/bin/linux64/refin
REMARK            -p \                                                          
REMARK            /dls/labxchem/data/lb32627/lb32627-1/processing/analysis/model
REMARK            -m \                                                          
REMARK            /dls/labxchem/data/lb32627/lb32627-1/processing/analysis/model
REMARK            -l \                                                          
REMARK            /dls/labxchem/data/lb32627/lb32627-1/processing/analysis/model
REMARK            -autoncs -M ADP -B user -Gelly gelly.dat -d Refine_6          
REMARK Files used:                                                              
REMARK   PDB              = Refine_6/pdbchk.pdb                                 
REMARK   MTZ              = /dls/labxchem/data/lb32627/lb32627-1/processing/anal
REMARK   Gelly commands       = /dls/labxchem/data/lb32627/lb32627-1/processing/
REMARK output written to subdirectory = Refine_6                                
REMARK best refinement for F,SIGF with R/Rfree 0.1558/0.1798                    
REMARK header records are copied from input PDB file (apart from REMARK 3!)     
REMARK --------------------- added by autoBUSTER -------------------------------
REMARK --------------------- added by autoBUSTER -------------------------------
REMARK run at   = Wed Dec 14 17:01:53 GMT 2022                                  
REMARK     in   = /dls/labxchem/data/lb32627/lb32627-1/processing/analysis/model
REMARK     user = ejx48977                                                      
REMARK     cmd  = \                                                             
REMARK            /dls_sw/apps/GPhL/BUSTER/20220608/autoBUSTER/bin/linux64/refin
REMARK            -p \                                                          
REMARK            /dls/labxchem/data/lb32627/lb32627-1/processing/analysis/model
REMARK            -m \                                                          
REMARK            /dls/labxchem/data/lb32627/lb32627-1/processing/analysis/model
REMARK            -l \                                                          
REMARK            /dls/labxchem/data/lb32627/lb32627-1/processing/analysis/model
REMARK            -autoncs -M ADP -B user -Gelly gelly.dat -d Refine_5          
REMARK Files used:                                                              
REMARK   PDB              = Refine_5/pdbchk.pdb                                 
REMARK   MTZ              = /dls/labxchem/data/lb32627/lb32627-1/processing/anal
REMARK   Gelly commands       = /dls/labxchem/data/lb32627/lb32627-1/processing/
REMARK output written to subdirectory = Refine_5                                
REMARK best refinement for F,SIGF with R/Rfree 0.1562/0.1802                    
REMARK header records are copied from input PDB file (apart from REMARK 3!)     
REMARK --------------------- added by autoBUSTER -------------------------------
REMARK --------------------- added by autoBUSTER -------------------------------
REMARK run at   = Wed Dec  7 17:42:38 GMT 2022                                  
REMARK     in   = /dls/labxchem/data/lb32627/lb32627-1/processing/analysis/model
REMARK     user = ill13029                                                      
REMARK     cmd  = \                                                             
REMARK            /dls_sw/apps/GPhL/BUSTER/20220608/autoBUSTER/bin/linux64/refin
REMARK            -p \                                                          
REMARK            /dls/labxchem/data/lb32627/lb32627-1/processing/analysis/model
REMARK            -m \                                                          
REMARK            /dls/labxchem/data/lb32627/lb32627-1/processing/analysis/model
REMARK            -l \                                                          
REMARK            /dls/labxchem/data/lb32627/lb32627-1/processing/analysis/model
REMARK            -autoncs -M ADP -B user -Gelly gelly.dat -d Refine_4          
REMARK Files used:                                                              
REMARK   PDB              = Refine_4/pdbchk.pdb                                 
REMARK   MTZ              = /dls/labxchem/data/lb32627/lb32627-1/processing/anal
REMARK   Gelly commands       = /dls/labxchem/data/lb32627/lb32627-1/processing/
REMARK output written to subdirectory = Refine_4                                
REMARK best refinement for F,SIGF with R/Rfree 0.1559/0.1796                    
REMARK header records are copied from input PDB file (apart from REMARK 3!)     
REMARK --------------------- added by autoBUSTER -------------------------------
REMARK --------------------- added by autoBUSTER -------------------------------
REMARK run at   = Wed Dec  7 16:42:08 GMT 2022                                  
REMARK     in   = /dls/labxchem/data/lb32627/lb32627-1/processing/analysis/model
REMARK     user = ill13029                                                      
REMARK     cmd  = \                                                             
REMARK            /dls_sw/apps/GPhL/BUSTER/20220608/autoBUSTER/bin/linux64/refin
REMARK            -p \                                                          
REMARK            /dls/labxchem/data/lb32627/lb32627-1/processing/analysis/model
REMARK            -m \                                                          
REMARK            /dls/labxchem/data/lb32627/lb32627-1/processing/analysis/model
REMARK            -l \                                                          
REMARK            /dls/labxchem/data/lb32627/lb32627-1/processing/analysis/model
REMARK            -autoncs -M ADP -B user -Gelly gelly.dat -d Refine_3          
REMARK Files used:                                                              
REMARK   PDB              = Refine_3/pdbchk.pdb                                 
REMARK   MTZ              = /dls/labxchem/data/lb32627/lb32627-1/processing/anal
REMARK   Gelly commands       = /dls/labxchem/data/lb32627/lb32627-1/processing/
REMARK output written to subdirectory = Refine_3                                
REMARK best refinement for F,SIGF with R/Rfree 0.1559/0.1798                    
REMARK header records are copied from input PDB file (apart from REMARK 3!)     
REMARK --------------------- added by autoBUSTER -------------------------------
REMARK --------------------- added by autoBUSTER -------------------------------
REMARK run at   = Wed Dec  7 15:18:12 GMT 2022                                  
REMARK     in   = /dls/labxchem/data/lb32627/lb32627-1/processing/analysis/model
REMARK     user = ill13029                                                      
REMARK     cmd  = \                                                             
REMARK            /dls_sw/apps/GPhL/BUSTER/20220608/autoBUSTER/bin/linux64/refin
REMARK            -p \                                                          
REMARK            /dls/labxchem/data/lb32627/lb32627-1/processing/analysis/model
REMARK            -m \                                                          
REMARK            /dls/labxchem/data/lb32627/lb32627-1/processing/analysis/model
REMARK            -l \                                                          
REMARK            /dls/labxchem/data/lb32627/lb32627-1/processing/analysis/model
REMARK            -autoncs -M ADP -d Refine_2                                   
REMARK Files used:                                                              
REMARK   PDB              = Refine_2/pdbchk.pdb                                 
REMARK   MTZ              = /dls/labxchem/data/lb32627/lb32627-1/processing/anal
REMARK output written to subdirectory = Refine_2                                
REMARK best refinement for F,SIGF with R/Rfree 0.1572/0.1821                    
REMARK header records are copied from input PDB file (apart from REMARK 3!)     
REMARK --------------------- added by autoBUSTER -------------------------------
REMARK --------------------- added by autoBUSTER -------------------------------
REMARK run at   = Tue Nov 29 13:56:15 GMT 2022                                  
REMARK     in   = /dls/labxchem/data/lb32627/lb32627-1/processing/analysis/model
REMARK     user = ill13029                                                      
REMARK     cmd  = \                                                             
REMARK            /dls_sw/apps/GPhL/BUSTER/20220608/autoBUSTER/bin/linux64/refin
REMARK            -p \                                                          
REMARK            /dls/labxchem/data/lb32627/lb32627-1/processing/analysis/model
REMARK            -m \                                                          
REMARK            /dls/labxchem/data/lb32627/lb32627-1/processing/analysis/model
REMARK            -l \                                                          
REMARK            /dls/labxchem/data/lb32627/lb32627-1/processing/analysis/model
REMARK            -autoncs -M TLSbasic -d Refine_1                              
REMARK Files used:                                                              
REMARK   PDB              = Refine_1/pdbchk.pdb                                 
REMARK   MTZ              = /dls/labxchem/data/lb32627/lb32627-1/processing/anal
REMARK output written to subdirectory = Refine_1                                
REMARK best refinement for F,SIGF with R/Rfree 0.1791/0.2032                    
REMARK header records are copied from input PDB file (apart from REMARK 3!)     
REMARK --------------------- added by autoBUSTER -------------------------------
REMARK   2                                                            
REMARK   2 RESOLUTION.    1.16 ANGSTROMS.
REMARK   3
REMARK   3 REFINEMENT.
REMARK   3   PROGRAM     : BUSTER 2.10.4 (21-NOV-2022)
REMARK   3   AUTHORS     : BRICOGNE,BLANC,BRANDL,FLENSBURG,KELLER,
REMARK   3               : PACIOREK,ROVERSI,SHARFF,SMART,VONRHEIN,WOMACK;
REMARK   3               : MATTHEWS,TEN EYCK,TRONRUD
REMARK   3
REMARK   3  DATA USED IN REFINEMENT.
REMARK   3   RESOLUTION RANGE HIGH (ANGSTROMS) : 1.155
REMARK   3   RESOLUTION RANGE LOW  (ANGSTROMS) : 16.73
REMARK   3   DATA CUTOFF            (SIGMA(F)) : 0.000
REMARK   3   COMPLETENESS FOR RANGE        (%) : 86.2
REMARK   3   NUMBER OF REFLECTIONS             : 93909
REMARK   3
REMARK   3  FIT TO DATA USED IN REFINEMENT.
REMARK   3   CROSS-VALIDATION METHOD          : THROUGHOUT
REMARK   3   FREE R VALUE TEST SET SELECTION  : RANDOM
REMARK   3   R VALUE     (WORKING + TEST SET) : 0.1569
REMARK   3   R VALUE            (WORKING SET) : 0.1557
REMARK   3   FREE R VALUE                     : 0.1798
REMARK   3   FREE R VALUE TEST SET SIZE   (%) : 4.990
REMARK   3   FREE R VALUE TEST SET COUNT      : 4687
REMARK   3   ESTIMATED ERROR OF FREE R VALUE  : NULL
REMARK   3
REMARK   3  FIT IN THE HIGHEST RESOLUTION BIN.
REMARK   3   TOTAL NUMBER OF BINS USED           : 51
REMARK   3   BIN RESOLUTION RANGE HIGH       (A) : 1.16
REMARK   3   BIN RESOLUTION RANGE LOW        (A) : 1.19
REMARK   3   BIN COMPLETENESS (WORKING+TEST) (%) : 21.97
REMARK   3   REFLECTIONS IN BIN   (WORKING+TEST) : 1879
REMARK   3   BIN R VALUE          (WORKING+TEST) : 0.2548
REMARK   3   REFLECTIONS IN BIN    (WORKING SET) : 1774
REMARK   3   BIN R VALUE           (WORKING SET) : 0.2532
REMARK   3   BIN FREE R VALUE                    : 0.2802
REMARK   3   BIN FREE R VALUE TEST SET SIZE  (%) : 5.59
REMARK   3   BIN FREE R VALUE TEST SET COUNT     : 105
REMARK   3   ESTIMATED ERROR OF BIN FREE R VALUE : NULL
REMARK   3
REMARK   3  NUMBER OF NON-HYDROGEN ATOMS USED IN REFINEMENT.
REMARK   3   PROTEIN ATOMS            : 2519
REMARK   3   NUCLEIC ACID ATOMS       : 0
REMARK   3   HETEROGEN ATOMS          : 17
REMARK   3   SOLVENT ATOMS            : 417
REMARK   3
REMARK   3  B VALUES.
REMARK   3   FROM WILSON PLOT           (A**2) : 12.83
REMARK   3   MEAN B VALUE      (OVERALL, A**2) : 20.76
REMARK   3   OVERALL ANISOTROPIC B VALUE.
REMARK   3    B11 (A**2) : 3.48920
REMARK   3    B22 (A**2) : 3.48920
REMARK   3    B33 (A**2) : -6.97830
REMARK   3    B12 (A**2) : 0.00000
REMARK   3    B13 (A**2) : 0.00000
REMARK   3    B23 (A**2) : 0.00000
REMARK   3
REMARK   3  ESTIMATED COORDINATE ERROR.
REMARK   3   ESD FROM LUZZATI PLOT                    (A) : 0.12
REMARK   3   DPI (BLOW EQ-10) BASED ON R VALUE        (A) : 0.038
REMARK   3   DPI (BLOW EQ-9) BASED ON FREE R VALUE    (A) : 0.041
REMARK   3   DPI (CRUICKSHANK) BASED ON R VALUE       (A) : 0.036
REMARK   3   DPI (CRUICKSHANK) BASED ON FREE R VALUE  (A) : 0.039
REMARK   3
REMARK   3   REFERENCES: BLOW, D. (2002) ACTA CRYST D58, 792-797
REMARK   3               CRUICKSHANK, D.W.J. (1999) ACTA CRYST D55, 583-601
REMARK   3
REMARK   3  CORRELATION COEFFICIENTS.
REMARK   3   CORRELATION COEFFICIENT FO-FC      : 0.957
REMARK   3   CORRELATION COEFFICIENT FO-FC FREE : 0.958
REMARK   3
REMARK   3  X-RAY WEIGHT : 4.59
REMARK   3
REMARK   3  GEOMETRY FUNCTION.                                                  
REMARK   3   RESTRAINT LIBRARIES.                                               
REMARK   3    NUMBER OF LIBRARIES USED :   8                                    
REMARK   3    LIBRARY  1 : protgeo_eh99.dat (V1.6.4.20) 20220523  STANDARD      
REMARK   3                 AMINO ACID DICTIONARY. BONDS AND ANGLES FROM         
REMARK   3                 ENGH AND HUBER EH99. OTHER VALUES BASED ON           
REMARK   3                 PREVIOUS TNT OR TAKEN FROM CCP4. INCLUDES            
REMARK   3                 HYDROGEN ATOMS.                                      
REMARK   3    LIBRARY  2 : exoticaa.dat (V1.3.4.16) 20220523  COLLECTION        
REMARK   3                 OF NON-STANDARD AMINO ACIDS, MAINLY EH91             
REMARK   3                 WITHOUT IDEAL DISTANCE INFO                          
REMARK   3    LIBRARY  3 : nuclgeo.dat (V1.13.4.9) 20221011                     
REMARK   3    LIBRARY  4 : bcorrel.dat (V1.15.10.2) 20190616                    
REMARK   3    LIBRARY  5 : contact.dat (V1.15.12.10) 20191121                   
REMARK   3    LIBRARY  6 : idealdist_contact.dat (V1.3.4.13) 20220125           
REMARK   3                 IDEAL-DISTANCE CONTACT TERM DATA AS USED IN          
REMARK   3                 PROLSQ. VALUES USED HERE ARE BASED ON DATA           
REMARK   3                 HARVESTING OF PDB AS OF 20190109.                    
REMARK   3    LIBRARY  7 : restraints for LIG (unknown) from cif                
REMARK   3                 dictionary ASAP-0000462-001.cif; generated by        
REMARK   3                 GRADE 1.2.21 (Feb 03 2022) from SMILES               
REMARK   3                 CC(C)C(Nc1ncnc2[nH]ccc12)C(N)=O using MOGUL          
REMARK   3                 1.8.5(274361), CSD as541be, with quantum             
REMARK   3                 mechanics RM1                                        
REMARK   3    LIBRARY  8 : assume.dat (V1.9.4.3) 20221011                       
REMARK   3                                                                      
REMARK   3   NUMBER OF GEOMETRIC FUNCTION TERMS DEFINED : 15                    
REMARK   3   TERM                          COUNT    WEIGHT   FUNCTION.          
REMARK   3    BOND LENGTHS              :   2618 ;   2.00 ;  HARMONIC           
REMARK   3    BOND ANGLES               :   3567 ;   2.00 ;  HARMONIC           
REMARK   3    TORSION ANGLES            :    896 ;   2.00 ;  SINUSOIDAL         
REMARK   3    TRIGONAL CARBON PLANES    :   NULL ;   NULL ;  NULL               
REMARK   3    GENERAL PLANES            :    467 ;   5.00 ;  HARMONIC           
REMARK   3    ISOTROPIC THERMAL FACTORS :   2600 ;  10.00 ;  HARMONIC           
REMARK   3    BAD NON-BONDED CONTACTS   :   NULL ;   NULL ;  NULL               
REMARK   3    IMPROPER TORSIONS         :   NULL ;   NULL ;  NULL               
REMARK   3    PSEUDOROTATION ANGLES     :   NULL ;   NULL ;  NULL               
REMARK   3    CHIRAL IMPROPER TORSION   :    337 ;   5.00 ;  SEMIHARMONIC       
REMARK   3    SUM OF OCCUPANCIES        :   NULL ;   NULL ;  NULL               
REMARK   3    UTILITY DISTANCES         :   NULL ;   NULL ;  NULL               
REMARK   3    UTILITY ANGLES            :   NULL ;   NULL ;  NULL               
REMARK   3    UTILITY TORSION           :   NULL ;   NULL ;  NULL               
REMARK   3    IDEAL-DIST CONTACT TERM   :   2554 ;   4.00 ;  SEMIHARMONIC       
REMARK   3                                                                      
REMARK   3   RMS DEVIATIONS FROM IDEAL VALUES.                                  
REMARK   3   BOND LENGTHS                       (A) : 0.014                     
REMARK   3   BOND ANGLES                  (DEGREES) : 1.24                      
REMARK   3   PEPTIDE OMEGA TORSION ANGLES (DEGREES) : 5.52                      
REMARK   3   OTHER TORSION ANGLES         (DEGREES) : 14.17                     
REMARK   3                                                                      
REMARK   3   SIMILARITY.                                                        
REMARK   3    NCS.                                                              
REMARK   3     NCS METHOD: RESTRAINT LSSR (-AUTONCS)                            
REMARK   3    TARGET RESTRAINTS.                                                
REMARK   3     TARGET REPRESENTATION : NONE                                     
REMARK   3     TARGET STRUCTURE : NULL                                          
REMARK   3                                                                      
REMARK   3  TLS DETAILS.                                                        
REMARK   3   NUMBER OF TLS GROUPS  :            0                               
REMARK   3                                                                      
REMARK   3  REFINEMENT NOTES.                                                   
REMARK   3   NUMBER OF REFINEMENT NOTES :   1                                   
REMARK   3   NOTE   1 : IDEAL-DIST CONTACT TERM CONTACT SETUP. ALL ATOMS        
REMARK   3               HAVE CCP4 ATOM TYPE FROM LIBRARY                       
REMARK   3
REMARK   3  OTHER REFINEMENT REMARKS: NULL
REMARK   3
REMARK 290                                                            
REMARK 290 CRYSTALLOGRAPHIC SYMMETRY                                  
REMARK 290 SYMMETRY OPERATORS FOR SPACE GROUP: P 43                   
REMARK 290                                                            
REMARK 290      SYMOP   SYMMETRY                                      
REMARK 290     NNNMMM   OPERATOR                                      
REMARK 290       1555   X,Y,Z                                         
REMARK 290       2555   -X,-Y,1/2+Z                                   
REMARK 290       3555   -Y,X,3/4+Z                                    
REMARK 290       4555   Y,-X,1/4+Z                                    
REMARK 290                                                            
REMARK 290     WHERE NNN -> OPERATOR NUMBER                           
REMARK 290           MMM -> TRANSLATION VECTOR                        
REMARK 290                                                            
REMARK 290 CRYSTALLOGRAPHIC SYMMETRY TRANSFORMATIONS                  
REMARK 290 THE FOLLOWING TRANSFORMATIONS OPERATE ON THE ATOM/HETATM   
REMARK 290 RECORDS IN THIS ENTRY TO PRODUCE CRYSTALLOGRAPHICALLY      
REMARK 290 RELATED MOLECULES.                                         
REMARK 290   SMTRY1   1  1.000000  0.000000  0.000000        0.00000
REMARK 290   SMTRY2   1  0.000000  1.000000  0.000000        0.00000
REMARK 290   SMTRY3   1  0.000000  0.000000  1.000000        0.00000
REMARK 290   SMTRY1   2 -1.000000  0.000000  0.000000        0.00000
REMARK 290   SMTRY2   2  0.000000 -1.000000  0.000000        0.00000
REMARK 290   SMTRY3   2  0.000000  0.000000  1.000000       19.75050
REMARK 290   SMTRY1   3  0.000000 -1.000000  0.000000        0.00000
REMARK 290   SMTRY2   3  1.000000  0.000000  0.000000        0.00000
REMARK 290   SMTRY3   3  0.000000  0.000000  1.000000       29.62575
REMARK 290   SMTRY1   4  0.000000  1.000000  0.000000        0.00000
REMARK 290   SMTRY2   4 -1.000000  0.000000  0.000000        0.00000
REMARK 290   SMTRY3   4  0.000000  0.000000  1.000000        9.87525
REMARK 290                                                            
REMARK 290 REMARK: NULL                                               
REMARK 300
REMARK 300 BIOMOLECULE: 1, 2
REMARK 300 SEE REMARK 350 FOR THE AUTHOR PROVIDED AND/OR PROGRAM
REMARK 300 GENERATED ASSEMBLY INFORMATION FOR THE STRUCTURE IN
REMARK 300 THIS ENTRY. THE REMARK MAY ALSO  PROVIDE INFORMATION ON
REMARK 300 BURIED SURFACE AREA.
REMARK 350
REMARK 350 COORDINATES FOR A COMPLETE MULTIMER REPRESENTING THE KNOWN
REMARK 350 BIOLOGICALLY SIGNIFICANT OLIGOMERIZATION STATE OF THE
REMARK 350 MOLECULE CAN BE GENERATED BY APPLYING BIOMT TRANSFORMATIONS
REMARK 350 GIVEN BELOW. BOTH NON-CRYSTALLOGRAPHIC AND
REMARK 350 CRYSTALLOGRAPHIC OPERATIONS ARE GIVEN.
REMARK 350
REMARK 350 BIOMOLECULE: 1
REMARK 350 SOFTWARE DETERMINED QUATERNARY STRUCTURE: MONOMERIC
REMARK 350 SOFTWARE USED: PISA
REMARK 350 SURFACE AREA OF THE MONOMER: 7804 ANGSTROM**2
REMARK 350 FREE ENERGY OF FOLDING: -155.5 KCAL/MOL
REMARK 350 APPLY THE FOLLOWING TO CHAINS: A,W
REMARK 350   BIOMT1   1  1.000000  0.000000  0.000000        0.00000
REMARK 350   BIOMT2   1  0.000000  1.000000  0.000000        0.00000
REMARK 350   BIOMT3   1  0.000000  0.000000  1.000000        0.00000
REMARK 350
REMARK 350 BIOMOLECULE: 2
REMARK 350 SOFTWARE DETERMINED QUATERNARY STRUCTURE: MONOMERIC
REMARK 350 SOFTWARE USED: PISA
REMARK 350 SURFACE AREA OF THE MONOMER: 8168 ANGSTROM**2
REMARK 350 FREE ENERGY OF FOLDING: -156.0 KCAL/MOL
REMARK 350 APPLY THE FOLLOWING TO CHAINS: B,W
REMARK 350   BIOMT1   1  1.000000  0.000000  0.000000        0.00000
REMARK 350   BIOMT2   1  0.000000  1.000000  0.000000        0.00000
REMARK 350   BIOMT3   1  0.000000  0.000000  1.000000        0.00000
CRYST1   89.133   89.133   39.501  90.00  90.00  90.00 P 43                     


$$$$
SARS2_Mac1A-A0621
  PyMOL3.0          3D                             0

 19 21  0  0  0  0  0  0  0  0999 V2000
   -1.2360   11.6030   -3.9470 N   0  0  0  0  0  0  0  0  0  0  0  0
    1.0630   15.4000   -4.1640 C   0  0  0  0  0  0  0  0  0  0  0  0
    0.5670   10.9650   -2.7880 O   0  0  0  0  0  0  0  0  0  0  0  0
    1.0580   13.8960   -4.2540 C   0  0  0  0  0  0  0  0  0  0  0  0
   -0.9380   14.0170   -2.5910 N   0  0  0  0  0  0  0  0  0  0  0  0
    2.4640   13.3250   -4.2390 C   0  0  0  0  0  0  0  0  0  0  0  0
    0.1370   14.2360   -0.5660 N   0  0  0  0  0  0  0  0  0  0  0  0
    0.2420   13.3010   -3.0960 C   0  0  0  0  0  0  0  0  0  0  0  0
   -0.9380   15.0750    1.4510 N   0  0  0  0  0  0  0  0  0  0  0  0
   -0.0870   11.8420   -3.3080 C   0  0  0  0  0  0  0  0  0  0  0  0
   -3.2120   15.8420    1.1500 N   0  0  0  0  0  0  0  0  0  0  0  0
   -2.0520   12.7110   -4.4020 C   0  0  0  0  0  0  0  0  0  0  0  0
   -2.1790   13.7880   -3.3330 C   0  0  0  0  0  0  0  0  0  0  0  0
   -0.9700   14.5060   -1.2810 C   0  0  0  0  0  0  0  0  0  0  0  0
    0.0870   14.5810    0.7420 C   0  0  0  0  0  0  0  0  0  0  0  0
   -2.0240   15.3220    0.7040 C   0  0  0  0  0  0  0  0  0  0  0  0
   -4.0390   16.0050    0.0670 C   0  0  0  0  0  0  0  0  0  0  0  0
   -3.4220   15.5820   -1.0690 C   0  0  0  0  0  0  0  0  0  0  0  0
   -2.1230   15.1170   -0.6820 C   0  0  0  0  0  0  0  0  0  0  0  0
  1 12  1  0  0  0  0
  3 10  2  0  0  0  0
  2  4  1  0  0  0  0
  4  6  1  0  0  0  0
  5  8  1  0  0  0  0
  5 14  1  0  0  0  0
  4  8  1  0  0  0  0
  9 15  4  0  0  0  0
  1 10  1  0  0  0  0
  8 10  1  0  0  0  0
 11 16  4  0  0  0  0
 12 13  1  0  0  0  0
  5 13  1  0  0  0  0
  7 14  4  0  0  0  0
 14 19  4  0  0  0  0
  7 15  4  0  0  0  0
  9 16  4  0  0  0  0
 11 17  4  0  0  0  0
 17 18  4  0  0  0  0
 16 19  4  0  0  0  0
 18 19  4  0  0  0  0
M  END
>  <pdb_header>
REMARK --------------------- added by autoBUSTER ---------------------------------START
REMARK run at   = Mon Mar 27 16:43:33 BST 2023
REMARK     in   = /dls/labxchem/data/lb32627/lb32627-1/processing/analysis/model_building/SARS2_Mac1A-A0621
REMARK     user = ill13029
REMARK     cmd  = \
REMARK            /dls_sw/apps/GPhL/BUSTER/20221121/autoBUSTER/bin/linux64/refine \
REMARK            -p \
REMARK            /dls/labxchem/data/lb32627/lb32627-1/processing/analysis/model_building/SARS2_Mac1A-A0621/cootOut/Refine_10/in.pdb \
REMARK            -m \
REMARK            /dls/labxchem/data/lb32627/lb32627-1/processing/analysis/model_building/SARS2_Mac1A-A0621/SARS2_Mac1A-A0621.free.mtz \
REMARK            -l \
REMARK            /dls/labxchem/data/lb32627/lb32627-1/processing/analysis/model_building/SARS2_Mac1A-A0621/ASAP-0000479-001.cif \
REMARK            -autoncs -M ADP -d Refine_10
REMARK Files used:
REMARK   PDB              = Refine_10/pdbchk.pdb
REMARK   MTZ              = /dls/labxchem/data/lb32627/lb32627-1/processing/analysis/model_building/SARS2_Mac1A-A0621/SARS2_Mac1A-A0621.free.mtz
REMARK output written to subdirectory = Refine_10
REMARK best refinement for F,SIGF with R/Rfree 0.1600/0.1941
REMARK header records are copied from input PDB file (apart from REMARK 3!)
REMARK --------------------- added by autoBUSTER -----------------------------------END
REMARK --------------------- added by autoBUSTER -------------------------------
REMARK run at   = Thu Dec  8 10:17:53 GMT 2022                                  
REMARK     in   = /dls/labxchem/data/lb32627/lb32627-1/processing/analysis/model
REMARK     user = ill13029                                                      
REMARK     cmd  = \                                                             
REMARK            /dls_sw/apps/GPhL/BUSTER/20220608/autoBUSTER/bin/linux64/refin
REMARK            -p \                                                          
REMARK            /dls/labxchem/data/lb32627/lb32627-1/processing/analysis/model
REMARK            -m \                                                          
REMARK            /dls/labxchem/data/lb32627/lb32627-1/processing/analysis/model
REMARK            -l \                                                          
REMARK            /dls/labxchem/data/lb32627/lb32627-1/processing/analysis/model
REMARK            -autoncs -M ADP -d Refine_8                                   
REMARK Files used:                                                              
REMARK   PDB              = Refine_8/pdbchk.pdb                                 
REMARK   MTZ              = /dls/labxchem/data/lb32627/lb32627-1/processing/anal
REMARK output written to subdirectory = Refine_8                                
REMARK best refinement for F,SIGF with R/Rfree 0.1600/0.1941                    
REMARK header records are copied from input PDB file (apart from REMARK 3!)     
REMARK --------------------- added by autoBUSTER -------------------------------
REMARK --------------------- added by autoBUSTER -------------------------------
REMARK run at   = Thu Dec  8 09:50:26 GMT 2022                                  
REMARK     in   = /dls/labxchem/data/lb32627/lb32627-1/processing/analysis/model
REMARK     user = ill13029                                                      
REMARK     cmd  = \                                                             
REMARK            /dls_sw/apps/GPhL/BUSTER/20220608/autoBUSTER/bin/linux64/refin
REMARK            -p \                                                          
REMARK            /dls/labxchem/data/lb32627/lb32627-1/processing/analysis/model
REMARK            -m \                                                          
REMARK            /dls/labxchem/data/lb32627/lb32627-1/processing/analysis/model
REMARK            -l \                                                          
REMARK            /dls/labxchem/data/lb32627/lb32627-1/processing/analysis/model
REMARK            -autoncs -M ADP -d Refine_7                                   
REMARK Files used:                                                              
REMARK   PDB              = Refine_7/pdbchk.pdb                                 
REMARK   MTZ              = /dls/labxchem/data/lb32627/lb32627-1/processing/anal
REMARK output written to subdirectory = Refine_7                                
REMARK best refinement for F,SIGF with R/Rfree 0.1600/0.1942                    
REMARK header records are copied from input PDB file (apart from REMARK 3!)     
REMARK --------------------- added by autoBUSTER -------------------------------
REMARK --------------------- added by autoBUSTER -------------------------------
REMARK run at   = Thu Dec  8 09:31:00 GMT 2022                                  
REMARK     in   = /dls/labxchem/data/lb32627/lb32627-1/processing/analysis/model
REMARK     user = ill13029                                                      
REMARK     cmd  = \                                                             
REMARK            /dls_sw/apps/GPhL/BUSTER/20220608/autoBUSTER/bin/linux64/refin
REMARK            -p \                                                          
REMARK            /dls/labxchem/data/lb32627/lb32627-1/processing/analysis/model
REMARK            -m \                                                          
REMARK            /dls/labxchem/data/lb32627/lb32627-1/processing/analysis/model
REMARK            -l \                                                          
REMARK            /dls/labxchem/data/lb32627/lb32627-1/processing/analysis/model
REMARK            -autoncs -M ADP -d Refine_6                                   
REMARK Files used:                                                              
REMARK   PDB              = Refine_6/pdbchk.pdb                                 
REMARK   MTZ              = /dls/labxchem/data/lb32627/lb32627-1/processing/anal
REMARK output written to subdirectory = Refine_6                                
REMARK best refinement for F,SIGF with R/Rfree 0.1600/0.1936                    
REMARK header records are copied from input PDB file (apart from REMARK 3!)     
REMARK --------------------- added by autoBUSTER -------------------------------
REMARK --------------------- added by autoBUSTER -------------------------------
REMARK run at   = Thu Dec  8 08:55:06 GMT 2022                                  
REMARK     in   = /dls/labxchem/data/lb32627/lb32627-1/processing/analysis/model
REMARK     user = ill13029                                                      
REMARK     cmd  = \                                                             
REMARK            /dls_sw/apps/GPhL/BUSTER/20220608/autoBUSTER/bin/linux64/refin
REMARK            -p \                                                          
REMARK            /dls/labxchem/data/lb32627/lb32627-1/processing/analysis/model
REMARK            -m \                                                          
REMARK            /dls/labxchem/data/lb32627/lb32627-1/processing/analysis/model
REMARK            -l \                                                          
REMARK            /dls/labxchem/data/lb32627/lb32627-1/processing/analysis/model
REMARK            -autoncs -M ADP -B user -Gelly gelly.dat -d Refine_5          
REMARK Files used:                                                              
REMARK   PDB              = Refine_5/pdbchk.pdb                                 
REMARK   MTZ              = /dls/labxchem/data/lb32627/lb32627-1/processing/anal
REMARK   Gelly commands       = /dls/labxchem/data/lb32627/lb32627-1/processing/
REMARK output written to subdirectory = Refine_5                                
REMARK best refinement for F,SIGF with R/Rfree 0.1600/0.1935                    
REMARK header records are copied from input PDB file (apart from REMARK 3!)     
REMARK --------------------- added by autoBUSTER -------------------------------
REMARK --------------------- added by autoBUSTER -------------------------------
REMARK run at   = Wed Dec  7 17:43:00 GMT 2022                                  
REMARK     in   = /dls/labxchem/data/lb32627/lb32627-1/processing/analysis/model
REMARK     user = ill13029                                                      
REMARK     cmd  = \                                                             
REMARK            /dls_sw/apps/GPhL/BUSTER/20220608/autoBUSTER/bin/linux64/refin
REMARK            -p \                                                          
REMARK            /dls/labxchem/data/lb32627/lb32627-1/processing/analysis/model
REMARK            -m \                                                          
REMARK            /dls/labxchem/data/lb32627/lb32627-1/processing/analysis/model
REMARK            -l \                                                          
REMARK            /dls/labxchem/data/lb32627/lb32627-1/processing/analysis/model
REMARK            -autoncs -M ADP -B user -Gelly gelly.dat -d Refine_4          
REMARK Files used:                                                              
REMARK   PDB              = Refine_4/pdbchk.pdb                                 
REMARK   MTZ              = /dls/labxchem/data/lb32627/lb32627-1/processing/anal
REMARK   Gelly commands       = /dls/labxchem/data/lb32627/lb32627-1/processing/
REMARK output written to subdirectory = Refine_4                                
REMARK best refinement for F,SIGF with R/Rfree 0.1601/0.1936                    
REMARK header records are copied from input PDB file (apart from REMARK 3!)     
REMARK --------------------- added by autoBUSTER -------------------------------
REMARK --------------------- added by autoBUSTER -------------------------------
REMARK run at   = Wed Dec  7 16:43:51 GMT 2022                                  
REMARK     in   = /dls/labxchem/data/lb32627/lb32627-1/processing/analysis/model
REMARK     user = ill13029                                                      
REMARK     cmd  = \                                                             
REMARK            /dls_sw/apps/GPhL/BUSTER/20220608/autoBUSTER/bin/linux64/refin
REMARK            -p \                                                          
REMARK            /dls/labxchem/data/lb32627/lb32627-1/processing/analysis/model
REMARK            -m \                                                          
REMARK            /dls/labxchem/data/lb32627/lb32627-1/processing/analysis/model
REMARK            -l \                                                          
REMARK            /dls/labxchem/data/lb32627/lb32627-1/processing/analysis/model
REMARK            -autoncs -M ADP -B user -Gelly gelly.dat -d Refine_3          
REMARK Files used:                                                              
REMARK   PDB              = Refine_3/pdbchk.pdb                                 
REMARK   MTZ              = /dls/labxchem/data/lb32627/lb32627-1/processing/anal
REMARK   Gelly commands       = /dls/labxchem/data/lb32627/lb32627-1/processing/
REMARK output written to subdirectory = Refine_3                                
REMARK best refinement for F,SIGF with R/Rfree 0.1601/0.1937                    
REMARK header records are copied from input PDB file (apart from REMARK 3!)     
REMARK --------------------- added by autoBUSTER -------------------------------
REMARK --------------------- added by autoBUSTER -------------------------------
REMARK run at   = Wed Dec  7 15:31:16 GMT 2022                                  
REMARK     in   = /dls/labxchem/data/lb32627/lb32627-1/processing/analysis/model
REMARK     user = ill13029                                                      
REMARK     cmd  = \                                                             
REMARK            /dls_sw/apps/GPhL/BUSTER/20220608/autoBUSTER/bin/linux64/refin
REMARK            -p \                                                          
REMARK            /dls/labxchem/data/lb32627/lb32627-1/processing/analysis/model
REMARK            -m \                                                          
REMARK            /dls/labxchem/data/lb32627/lb32627-1/processing/analysis/model
REMARK            -l \                                                          
REMARK            /dls/labxchem/data/lb32627/lb32627-1/processing/analysis/model
REMARK            -autoncs -M ADP -d Refine_2                                   
REMARK Files used:                                                              
REMARK   PDB              = Refine_2/pdbchk.pdb                                 
REMARK   MTZ              = /dls/labxchem/data/lb32627/lb32627-1/processing/anal
REMARK output written to subdirectory = Refine_2                                
REMARK best refinement for F,SIGF with R/Rfree 0.1602/0.1944                    
REMARK header records are copied from input PDB file (apart from REMARK 3!)     
REMARK --------------------- added by autoBUSTER -------------------------------
REMARK --------------------- added by autoBUSTER -------------------------------
REMARK run at   = Tue Nov 29 13:56:15 GMT 2022                                  
REMARK     in   = /dls/labxchem/data/lb32627/lb32627-1/processing/analysis/model
REMARK     user = ill13029                                                      
REMARK     cmd  = \                                                             
REMARK            /dls_sw/apps/GPhL/BUSTER/20220608/autoBUSTER/bin/linux64/refin
REMARK            -p \                                                          
REMARK            /dls/labxchem/data/lb32627/lb32627-1/processing/analysis/model
REMARK            -m \                                                          
REMARK            /dls/labxchem/data/lb32627/lb32627-1/processing/analysis/model
REMARK            -l \                                                          
REMARK            /dls/labxchem/data/lb32627/lb32627-1/processing/analysis/model
REMARK            -autoncs -M TLSbasic -d Refine_1                              
REMARK Files used:                                                              
REMARK   PDB              = Refine_1/pdbchk.pdb                                 
REMARK   MTZ              = /dls/labxchem/data/lb32627/lb32627-1/processing/anal
REMARK output written to subdirectory = Refine_1                                
REMARK best refinement for F,SIGF with R/Rfree 0.1822/0.2108                    
REMARK header records are copied from input PDB file (apart from REMARK 3!)     
REMARK --------------------- added by autoBUSTER -------------------------------
HEADER    ----                                    18-MAY-20                     
TITLE     ---                                                                   
COMPND    ---                                                                   
EXPDTA    X-RAY DIFFRACTION
REMARK   2                                                            
REMARK   2 RESOLUTION.    1.14 ANGSTROMS.
REMARK   3
REMARK   3 REFINEMENT.
REMARK   3   PROGRAM     : BUSTER 2.10.4 (21-NOV-2022)
REMARK   3   AUTHORS     : BRICOGNE,BLANC,BRANDL,FLENSBURG,KELLER,
REMARK   3               : PACIOREK,ROVERSI,SHARFF,SMART,VONRHEIN,WOMACK;
REMARK   3               : MATTHEWS,TEN EYCK,TRONRUD
REMARK   3
REMARK   3  DATA USED IN REFINEMENT.
REMARK   3   RESOLUTION RANGE HIGH (ANGSTROMS) : 1.144
REMARK   3   RESOLUTION RANGE LOW  (ANGSTROMS) : 16.65
REMARK   3   DATA CUTOFF            (SIGMA(F)) : 0.000
REMARK   3   COMPLETENESS FOR RANGE        (%) : 84.0
REMARK   3   NUMBER OF REFLECTIONS             : 93426
REMARK   3
REMARK   3  FIT TO DATA USED IN REFINEMENT.
REMARK   3   CROSS-VALIDATION METHOD          : THROUGHOUT
REMARK   3   FREE R VALUE TEST SET SELECTION  : RANDOM
REMARK   3   R VALUE     (WORKING + TEST SET) : 0.1616
REMARK   3   R VALUE            (WORKING SET) : 0.1600
REMARK   3   FREE R VALUE                     : 0.1941
REMARK   3   FREE R VALUE TEST SET SIZE   (%) : 5.000
REMARK   3   FREE R VALUE TEST SET COUNT      : 4669
REMARK   3   ESTIMATED ERROR OF FREE R VALUE  : NULL
REMARK   3
REMARK   3  FIT IN THE HIGHEST RESOLUTION BIN.
REMARK   3   TOTAL NUMBER OF BINS USED           : 51
REMARK   3   BIN RESOLUTION RANGE HIGH       (A) : 1.14
REMARK   3   BIN RESOLUTION RANGE LOW        (A) : 1.19
REMARK   3   BIN COMPLETENESS (WORKING+TEST) (%) : 16.69
REMARK   3   REFLECTIONS IN BIN   (WORKING+TEST) : 1869
REMARK   3   BIN R VALUE          (WORKING+TEST) : 0.3340
REMARK   3   REFLECTIONS IN BIN    (WORKING SET) : 1765
REMARK   3   BIN R VALUE           (WORKING SET) : 0.3326
REMARK   3   BIN FREE R VALUE                    : 0.3559
REMARK   3   BIN FREE R VALUE TEST SET SIZE  (%) : 5.56
REMARK   3   BIN FREE R VALUE TEST SET COUNT     : 104
REMARK   3   ESTIMATED ERROR OF BIN FREE R VALUE : NULL
REMARK   3
REMARK   3  NUMBER OF NON-HYDROGEN ATOMS USED IN REFINEMENT.
REMARK   3   PROTEIN ATOMS            : 2519
REMARK   3   NUCLEIC ACID ATOMS       : 0
REMARK   3   HETEROGEN ATOMS          : 27
REMARK   3   SOLVENT ATOMS            : 422
REMARK   3
REMARK   3  B VALUES.
REMARK   3   FROM WILSON PLOT           (A**2) : 12.86
REMARK   3   MEAN B VALUE      (OVERALL, A**2) : 21.07
REMARK   3   OVERALL ANISOTROPIC B VALUE.
REMARK   3    B11 (A**2) : 3.96810
REMARK   3    B22 (A**2) : 3.96810
REMARK   3    B33 (A**2) : -7.93620
REMARK   3    B12 (A**2) : 0.00000
REMARK   3    B13 (A**2) : 0.00000
REMARK   3    B23 (A**2) : 0.00000
REMARK   3
REMARK   3  ESTIMATED COORDINATE ERROR.
REMARK   3   ESD FROM LUZZATI PLOT                    (A) : 0.14
REMARK   3   DPI (BLOW EQ-10) BASED ON R VALUE        (A) : 0.039
REMARK   3   DPI (BLOW EQ-9) BASED ON FREE R VALUE    (A) : 0.044
REMARK   3   DPI (CRUICKSHANK) BASED ON R VALUE       (A) : 0.037
REMARK   3   DPI (CRUICKSHANK) BASED ON FREE R VALUE  (A) : 0.042
REMARK   3
REMARK   3   REFERENCES: BLOW, D. (2002) ACTA CRYST D58, 792-797
REMARK   3               CRUICKSHANK, D.W.J. (1999) ACTA CRYST D55, 583-601
REMARK   3
REMARK   3  CORRELATION COEFFICIENTS.
REMARK   3   CORRELATION COEFFICIENT FO-FC      : 0.953
REMARK   3   CORRELATION COEFFICIENT FO-FC FREE : 0.951
REMARK   3
REMARK   3  X-RAY WEIGHT : 4.62
REMARK   3
REMARK   3  GEOMETRY FUNCTION.                                                  
REMARK   3   RESTRAINT LIBRARIES.                                               
REMARK   3    NUMBER OF LIBRARIES USED :   9                                    
REMARK   3    LIBRARY  1 : protgeo_eh99.dat (V1.6.4.20) 20220523  STANDARD      
REMARK   3                 AMINO ACID DICTIONARY. BONDS AND ANGLES FROM         
REMARK   3                 ENGH AND HUBER EH99. OTHER VALUES BASED ON           
REMARK   3                 PREVIOUS TNT OR TAKEN FROM CCP4. INCLUDES            
REMARK   3                 HYDROGEN ATOMS.                                      
REMARK   3    LIBRARY  2 : exoticaa.dat (V1.3.4.16) 20220523  COLLECTION        
REMARK   3                 OF NON-STANDARD AMINO ACIDS, MAINLY EH91             
REMARK   3                 WITHOUT IDEAL DISTANCE INFO                          
REMARK   3    LIBRARY  3 : nuclgeo.dat (V1.13.4.9) 20221011                     
REMARK   3    LIBRARY  4 : bcorrel.dat (V1.15.10.2) 20190616                    
REMARK   3    LIBRARY  5 : contact.dat (V1.15.12.10) 20191121                   
REMARK   3    LIBRARY  6 : idealdist_contact.dat (V1.3.4.13) 20220125           
REMARK   3                 IDEAL-DISTANCE CONTACT TERM DATA AS USED IN          
REMARK   3                 PROLSQ. VALUES USED HERE ARE BASED ON DATA           
REMARK   3                 HARVESTING OF PDB AS OF 20190109.                    
REMARK   3    LIBRARY  7 : restraints for LIG (unknown) from cif                
REMARK   3                 dictionary ASAP-0000479-001.cif; generated by        
REMARK   3                 GRADE 1.2.21 (Feb 03 2022) from SMILES               
REMARK   3                 CC(C)C1C(=O)NCCN1c1ncnc2[nH]ccc12 using MOGUL        
REMARK   3                 1.8.5(274361), CSD as541be, with quantum             
REMARK   3                 mechanics RM1                                        
REMARK   3    LIBRARY  8 : restraints for DMS (DIMETHYL SULFOXIDE) from         
REMARK   3                 cif dictionary DMS.cif; generated by grade2          
REMARK   3                 version 1.1.0a7 from                                 
REMARK   3                 PDB_chemical_components_definition_file              
REMARK   3                 ftp://ftp.ebi.ac.uk/pub/databases/msd/pdbechem_v     
REMARK   3                 2/D/DMS/DMS.cif using RDKit 2021.03.4                
REMARK   3                 ((DatabaseID PDB-DMS))                               
REMARK   3    LIBRARY  9 : assume.dat (V1.9.4.3) 20221011                       
REMARK   3                                                                      
REMARK   3   NUMBER OF GEOMETRIC FUNCTION TERMS DEFINED : 15                    
REMARK   3   TERM                          COUNT    WEIGHT   FUNCTION.          
REMARK   3    BOND LENGTHS              :   2633 ;   2.00 ;  HARMONIC           
REMARK   3    BOND ANGLES               :   3588 ;   2.00 ;  HARMONIC           
REMARK   3    TORSION ANGLES            :    904 ;   2.00 ;  SINUSOIDAL         
REMARK   3    TRIGONAL CARBON PLANES    :   NULL ;   NULL ;  NULL               
REMARK   3    GENERAL PLANES            :    469 ;   5.00 ;  HARMONIC           
REMARK   3    ISOTROPIC THERMAL FACTORS :   2606 ;  10.00 ;  HARMONIC           
REMARK   3    BAD NON-BONDED CONTACTS   :   NULL ;   NULL ;  NULL               
REMARK   3    IMPROPER TORSIONS         :   NULL ;   NULL ;  NULL               
REMARK   3    PSEUDOROTATION ANGLES     :   NULL ;   NULL ;  NULL               
REMARK   3    CHIRAL IMPROPER TORSION   :    338 ;   5.00 ;  SEMIHARMONIC       
REMARK   3    SUM OF OCCUPANCIES        :   NULL ;   NULL ;  NULL               
REMARK   3    UTILITY DISTANCES         :   NULL ;   NULL ;  NULL               
REMARK   3    UTILITY ANGLES            :   NULL ;   NULL ;  NULL               
REMARK   3    UTILITY TORSION           :   NULL ;   NULL ;  NULL               
REMARK   3    IDEAL-DIST CONTACT TERM   :   2657 ;   4.00 ;  SEMIHARMONIC       
REMARK   3                                                                      
REMARK   3   RMS DEVIATIONS FROM IDEAL VALUES.                                  
REMARK   3   BOND LENGTHS                       (A) : 0.014                     
REMARK   3   BOND ANGLES                  (DEGREES) : 1.29                      
REMARK   3   PEPTIDE OMEGA TORSION ANGLES (DEGREES) : 5.42                      
REMARK   3   OTHER TORSION ANGLES         (DEGREES) : 14.06                     
REMARK   3                                                                      
REMARK   3   SIMILARITY.                                                        
REMARK   3    NCS.                                                              
REMARK   3     NCS METHOD: RESTRAINT LSSR (-AUTONCS)                            
REMARK   3    TARGET RESTRAINTS.                                                
REMARK   3     TARGET REPRESENTATION : NONE                                     
REMARK   3     TARGET STRUCTURE : NULL                                          
REMARK   3                                                                      
REMARK   3  TLS DETAILS.                                                        
REMARK   3   NUMBER OF TLS GROUPS  :            0                               
REMARK   3                                                                      
REMARK   3  REFINEMENT NOTES.                                                   
REMARK   3   NUMBER OF REFINEMENT NOTES :   1                                   
REMARK   3   NOTE   1 : IDEAL-DIST CONTACT TERM CONTACT SETUP. ALL ATOMS        
REMARK   3               HAVE CCP4 ATOM TYPE FROM LIBRARY                       
REMARK   3
REMARK   3  OTHER REFINEMENT REMARKS: NULL
REMARK   3
REMARK 290                                                            
REMARK 290 CRYSTALLOGRAPHIC SYMMETRY                                  
REMARK 290 SYMMETRY OPERATORS FOR SPACE GROUP: P 43                   
REMARK 290                                                            
REMARK 290      SYMOP   SYMMETRY                                      
REMARK 290     NNNMMM   OPERATOR                                      
REMARK 290       1555   X,Y,Z                                         
REMARK 290       2555   -X,-Y,1/2+Z                                   
REMARK 290       3555   -Y,X,3/4+Z                                    
REMARK 290       4555   Y,-X,1/4+Z                                    
REMARK 290                                                            
REMARK 290     WHERE NNN -> OPERATOR NUMBER                           
REMARK 290           MMM -> TRANSLATION VECTOR                        
REMARK 290                                                            
REMARK 290 CRYSTALLOGRAPHIC SYMMETRY TRANSFORMATIONS                  
REMARK 290 THE FOLLOWING TRANSFORMATIONS OPERATE ON THE ATOM/HETATM   
REMARK 290 RECORDS IN THIS ENTRY TO PRODUCE CRYSTALLOGRAPHICALLY      
REMARK 290 RELATED MOLECULES.                                         
REMARK 290   SMTRY1   1  1.000000  0.000000  0.000000        0.00000
REMARK 290   SMTRY2   1  0.000000  1.000000  0.000000        0.00000
REMARK 290   SMTRY3   1  0.000000  0.000000  1.000000        0.00000
REMARK 290   SMTRY1   2 -1.000000  0.000000  0.000000        0.00000
REMARK 290   SMTRY2   2  0.000000 -1.000000  0.000000        0.00000
REMARK 290   SMTRY3   2  0.000000  0.000000  1.000000       19.62200
REMARK 290   SMTRY1   3  0.000000 -1.000000  0.000000        0.00000
REMARK 290   SMTRY2   3  1.000000  0.000000  0.000000        0.00000
REMARK 290   SMTRY3   3  0.000000  0.000000  1.000000       29.43300
REMARK 290   SMTRY1   4  0.000000  1.000000  0.000000        0.00000
REMARK 290   SMTRY2   4 -1.000000  0.000000  0.000000        0.00000
REMARK 290   SMTRY3   4  0.000000  0.000000  1.000000        9.81100
REMARK 290                                                            
REMARK 290 REMARK: NULL                                               
CRYST1   89.084   89.084   39.244  90.00  90.00  90.00 P 43           


$$$$
SARS2_Mac1A-A0630
  PyMOL3.0          3D                             0

 16 17  0  0  0  0  0  0  0  0999 V2000
   -0.5730   14.0540   -2.2220 N   0  0  0  0  0  0  0  0  0  0  0  0
    2.5810   13.4900   -4.2820 C   0  0  0  0  0  0  0  0  0  0  0  0
   -0.1700   11.3310   -1.8050 O   0  0  0  0  0  0  0  0  0  0  0  0
    1.2250   14.0960   -3.9510 C   0  0  0  0  0  0  0  0  0  0  0  0
    0.2830   14.2220   -0.0510 N   0  0  0  0  0  0  0  0  0  0  0  0
    1.3520   15.5840   -3.7570 C   0  0  0  0  0  0  0  0  0  0  0  0
   -0.9970   15.0560    1.8310 N   0  0  0  0  0  0  0  0  0  0  0  0
    0.6510   13.3990   -2.7180 C   0  0  0  0  0  0  0  0  0  0  0  0
   -3.2440   15.7430    1.2530 N   0  0  0  0  0  0  0  0  0  0  0  0
    0.3840   11.9210   -2.9530 C   0  0  0  0  0  0  0  0  0  0  0  0
   -0.7360   14.4220   -0.9120 C   0  0  0  0  0  0  0  0  0  0  0  0
    0.0940   14.5540    1.2370 C   0  0  0  0  0  0  0  0  0  0  0  0
   -2.0050   15.2440    0.9540 C   0  0  0  0  0  0  0  0  0  0  0  0
   -3.9690   15.8100    0.0880 C   0  0  0  0  0  0  0  0  0  0  0  0
   -3.2290   15.3570   -0.9550 C   0  0  0  0  0  0  0  0  0  0  0  0
   -1.9560   14.9830   -0.4250 C   0  0  0  0  0  0  0  0  0  0  0  0
  1 11  1  0  0  0  0
  3 10  1  0  0  0  0
  2  4  1  0  0  0  0
  4  6  1  0  0  0  0
  7 12  4  0  0  0  0
  1  8  1  0  0  0  0
  4  8  1  0  0  0  0
  9 13  4  0  0  0  0
  8 10  1  0  0  0  0
  5 11  4  0  0  0  0
 11 16  4  0  0  0  0
  5 12  4  0  0  0  0
  7 13  4  0  0  0  0
  9 14  4  0  0  0  0
 14 15  4  0  0  0  0
 13 16  4  0  0  0  0
 15 16  4  0  0  0  0
M  END
>  <pdb_header>
REMARK --------------------- added by autoBUSTER ---------------------------------START
REMARK run at   = Mon Apr 17 11:06:19 BST 2023
REMARK     in   = /dls/labxchem/data/lb32627/lb32627-1/processing/analysis/model_building/SARS2_Mac1A-A0630
REMARK     user = dcn76311
REMARK     cmd  = \
REMARK            /dls_sw/apps/GPhL/BUSTER/20230217/autoBUSTER/bin/linux64/refine \
REMARK            -p \
REMARK            /dls/labxchem/data/lb32627/lb32627-1/processing/analysis/model_building/SARS2_Mac1A-A0630/cootOut/Refine_11/in.pdb \
REMARK            -m \
REMARK            /dls/labxchem/data/lb32627/lb32627-1/processing/analysis/model_building/SARS2_Mac1A-A0630/SARS2_Mac1A-A0630.free.mtz \
REMARK            -l \
REMARK            /dls/labxchem/data/lb32627/lb32627-1/processing/analysis/model_building/SARS2_Mac1A-A0630/ASAP-0000453-001.cif \
REMARK            -autoncs -M TLSbasic -d Refine_11
REMARK Files used:
REMARK   PDB              = Refine_11/pdbchk.pdb
REMARK   MTZ              = /dls/labxchem/data/lb32627/lb32627-1/processing/analysis/model_building/SARS2_Mac1A-A0630/SARS2_Mac1A-A0630.free.mtz
REMARK output written to subdirectory = Refine_11
REMARK best refinement for F,SIGF with R/Rfree 0.1771/0.1979
REMARK header records are copied from input PDB file (apart from REMARK 3!)
REMARK --------------------- added by autoBUSTER -----------------------------------END
REMARK --------------------- added by autoBUSTER -------------------------------
REMARK run at   = Mon Apr 17 10:47:53 BST 2023                                  
REMARK     in   = /dls/labxchem/data/lb32627/lb32627-1/processing/analysis/model
REMARK     user = dcn76311                                                      
REMARK     cmd  = \                                                             
REMARK            /dls_sw/apps/GPhL/BUSTER/20230217/autoBUSTER/bin/linux64/refin
REMARK            -p \                                                          
REMARK            /dls/labxchem/data/lb32627/lb32627-1/processing/analysis/model
REMARK            -m \                                                          
REMARK            /dls/labxchem/data/lb32627/lb32627-1/processing/analysis/model
REMARK            -l \                                                          
REMARK            /dls/labxchem/data/lb32627/lb32627-1/processing/analysis/model
REMARK            -autoncs -M TLSbasic -d Refine_10                             
REMARK Files used:                                                              
REMARK   PDB              = Refine_10/pdbchk.pdb                                
REMARK   MTZ              = /dls/labxchem/data/lb32627/lb32627-1/processing/anal
REMARK output written to subdirectory = Refine_10                               
REMARK best refinement for F,SIGF with R/Rfree 0.1772/0.1983                    
REMARK header records are copied from input PDB file (apart from REMARK 3!)     
REMARK --------------------- added by autoBUSTER -------------------------------
REMARK --------------------- added by autoBUSTER -------------------------------
REMARK run at   = Mon Mar 20 14:01:19 GMT 2023                                  
REMARK     in   = /dls/labxchem/data/lb32627/lb32627-1/processing/analysis/model
REMARK     user = dcn76311                                                      
REMARK     cmd  = \                                                             
REMARK            /dls_sw/apps/GPhL/BUSTER/20221121/autoBUSTER/bin/linux64/refin
REMARK            -p \                                                          
REMARK            /dls/labxchem/data/lb32627/lb32627-1/processing/analysis/model
REMARK            -m \                                                          
REMARK            /dls/labxchem/data/lb32627/lb32627-1/processing/analysis/model
REMARK            -l \                                                          
REMARK            /dls/labxchem/data/lb32627/lb32627-1/processing/analysis/model
REMARK            -autoncs -M TLSbasic -d Refine_9                              
REMARK Files used:                                                              
REMARK   PDB              = Refine_9/pdbchk.pdb                                 
REMARK   MTZ              = /dls/labxchem/data/lb32627/lb32627-1/processing/anal
REMARK output written to subdirectory = Refine_9                                
REMARK best refinement for F,SIGF with R/Rfree 0.1775/0.1981                    
REMARK header records are copied from input PDB file (apart from REMARK 3!)     
REMARK --------------------- added by autoBUSTER -------------------------------
REMARK --------------------- added by autoBUSTER -------------------------------
REMARK run at   = Thu Feb 16 11:39:13 GMT 2023                                  
REMARK     in   = /dls/labxchem/data/lb32627/lb32627-1/processing/analysis/model
REMARK     user = dcn76311                                                      
REMARK     cmd  = \                                                             
REMARK            /dls_sw/apps/GPhL/BUSTER/20221121/autoBUSTER/bin/linux64/refin
REMARK            -p \                                                          
REMARK            /dls/labxchem/data/lb32627/lb32627-1/processing/analysis/model
REMARK            -m \                                                          
REMARK            /dls/labxchem/data/lb32627/lb32627-1/processing/analysis/model
REMARK            -l \                                                          
REMARK            /dls/labxchem/data/lb32627/lb32627-1/processing/analysis/model
REMARK            -autoncs -M TLSbasic -d Refine_8                              
REMARK Files used:                                                              
REMARK   PDB              = Refine_8/pdbchk.pdb                                 
REMARK   MTZ              = /dls/labxchem/data/lb32627/lb32627-1/processing/anal
REMARK output written to subdirectory = Refine_8                                
REMARK best refinement for F,SIGF with R/Rfree 0.1772/0.1984                    
REMARK header records are copied from input PDB file (apart from REMARK 3!)     
REMARK --------------------- added by autoBUSTER -------------------------------
REMARK --------------------- added by autoBUSTER -------------------------------
REMARK run at   = Thu Feb 16 11:02:57 GMT 2023                                  
REMARK     in   = /dls/labxchem/data/lb32627/lb32627-1/processing/analysis/model
REMARK     user = dcn76311                                                      
REMARK     cmd  = \                                                             
REMARK            /dls_sw/apps/GPhL/BUSTER/20221121/autoBUSTER/bin/linux64/refin
REMARK            -p \                                                          
REMARK            /dls/labxchem/data/lb32627/lb32627-1/processing/analysis/model
REMARK            -m \                                                          
REMARK            /dls/labxchem/data/lb32627/lb32627-1/processing/analysis/model
REMARK            -l \                                                          
REMARK            /dls/labxchem/data/lb32627/lb32627-1/processing/analysis/model
REMARK            -autoncs -M TLSbasic -d Refine_7                              
REMARK Files used:                                                              
REMARK   PDB              = Refine_7/pdbchk.pdb                                 
REMARK   MTZ              = /dls/labxchem/data/lb32627/lb32627-1/processing/anal
REMARK output written to subdirectory = Refine_7                                
REMARK best refinement for F,SIGF with R/Rfree 0.1773/0.1981                    
REMARK header records are copied from input PDB file (apart from REMARK 3!)     
REMARK --------------------- added by autoBUSTER -------------------------------
REMARK --------------------- added by autoBUSTER -------------------------------
REMARK run at   = Thu Feb 16 10:27:05 GMT 2023                                  
REMARK     in   = /dls/labxchem/data/lb32627/lb32627-1/processing/analysis/model
REMARK     user = dcn76311                                                      
REMARK     cmd  = \                                                             
REMARK            /dls_sw/apps/GPhL/BUSTER/20221121/autoBUSTER/bin/linux64/refin
REMARK            -p \                                                          
REMARK            /dls/labxchem/data/lb32627/lb32627-1/processing/analysis/model
REMARK            -m \                                                          
REMARK            /dls/labxchem/data/lb32627/lb32627-1/processing/analysis/model
REMARK            -l \                                                          
REMARK            /dls/labxchem/data/lb32627/lb32627-1/processing/analysis/model
REMARK            -autoncs -M TLSbasic -d Refine_6                              
REMARK Files used:                                                              
REMARK   PDB              = Refine_6/pdbchk.pdb                                 
REMARK   MTZ              = /dls/labxchem/data/lb32627/lb32627-1/processing/anal
REMARK output written to subdirectory = Refine_6                                
REMARK best refinement for F,SIGF with R/Rfree 0.1780/0.1995                    
REMARK header records are copied from input PDB file (apart from REMARK 3!)     
REMARK --------------------- added by autoBUSTER -------------------------------
REMARK --------------------- added by autoBUSTER -------------------------------
REMARK run at   = Fri Feb  3 10:19:01 GMT 2023                                  
REMARK     in   = /dls/labxchem/data/lb32627/lb32627-1/processing/analysis/model
REMARK     user = dcn76311                                                      
REMARK     cmd  = \                                                             
REMARK            /dls_sw/apps/GPhL/BUSTER/20221121/autoBUSTER/bin/linux64/refin
REMARK            -p \                                                          
REMARK            /dls/labxchem/data/lb32627/lb32627-1/processing/analysis/model
REMARK            -m \                                                          
REMARK            /dls/labxchem/data/lb32627/lb32627-1/processing/analysis/model
REMARK            -l \                                                          
REMARK            /dls/labxchem/data/lb32627/lb32627-1/processing/analysis/model
REMARK            -autoncs -M TLSbasic -d Refine_5                              
REMARK Files used:                                                              
REMARK   PDB              = Refine_5/pdbchk.pdb                                 
REMARK   MTZ              = /dls/labxchem/data/lb32627/lb32627-1/processing/anal
REMARK output written to subdirectory = Refine_5                                
REMARK best refinement for F,SIGF with R/Rfree 0.1783/0.2000                    
REMARK header records are copied from input PDB file (apart from REMARK 3!)     
REMARK --------------------- added by autoBUSTER -------------------------------
REMARK --------------------- added by autoBUSTER -------------------------------
REMARK run at   = Fri Feb  3 09:07:35 GMT 2023                                  
REMARK     in   = /dls/labxchem/data/lb32627/lb32627-1/processing/analysis/model
REMARK     user = dcn76311                                                      
REMARK     cmd  = \                                                             
REMARK            /dls_sw/apps/GPhL/BUSTER/20221121/autoBUSTER/bin/linux64/refin
REMARK            -p \                                                          
REMARK            /dls/labxchem/data/lb32627/lb32627-1/processing/analysis/model
REMARK            -m \                                                          
REMARK            /dls/labxchem/data/lb32627/lb32627-1/processing/analysis/model
REMARK            -l \                                                          
REMARK            /dls/labxchem/data/lb32627/lb32627-1/processing/analysis/model
REMARK            -autoncs -M TLSbasic -d Refine_4                              
REMARK Files used:                                                              
REMARK   PDB              = Refine_4/pdbchk.pdb                                 
REMARK   MTZ              = /dls/labxchem/data/lb32627/lb32627-1/processing/anal
REMARK output written to subdirectory = Refine_4                                
REMARK best refinement for F,SIGF with R/Rfree 0.1816/0.2023                    
REMARK header records are copied from input PDB file (apart from REMARK 3!)     
REMARK --------------------- added by autoBUSTER -------------------------------
REMARK --------------------- added by autoBUSTER -------------------------------
REMARK run at   = Thu Feb  2 10:45:20 GMT 2023                                  
REMARK     in   = /dls/labxchem/data/lb32627/lb32627-1/processing/analysis/model
REMARK     user = dcn76311                                                      
REMARK     cmd  = \                                                             
REMARK            /dls_sw/apps/GPhL/BUSTER/20221121/autoBUSTER/bin/linux64/refin
REMARK            -p \                                                          
REMARK            /dls/labxchem/data/lb32627/lb32627-1/processing/analysis/model
REMARK            -m \                                                          
REMARK            /dls/labxchem/data/lb32627/lb32627-1/processing/analysis/model
REMARK            -l \                                                          
REMARK            /dls/labxchem/data/lb32627/lb32627-1/processing/analysis/model
REMARK            -autoncs -M TLSbasic -d Refine_3                              
REMARK Files used:                                                              
REMARK   PDB              = Refine_3/pdbchk.pdb                                 
REMARK   MTZ              = /dls/labxchem/data/lb32627/lb32627-1/processing/anal
REMARK output written to subdirectory = Refine_3                                
REMARK best refinement for F,SIGF with R/Rfree 0.1831/0.2063                    
REMARK header records are copied from input PDB file (apart from REMARK 3!)     
REMARK --------------------- added by autoBUSTER -------------------------------
HEADER    ----                                    18-MAY-20                     
TITLE     ---                                                                   
COMPND    ---                                                                   
EXPDTA    X-RAY DIFFRACTION
REMARK   2                                                            
REMARK   2 RESOLUTION.    1.14 ANGSTROMS.
REMARK   3
REMARK   3 REFINEMENT.
REMARK   3   PROGRAM     : BUSTER 2.10.4 (17-FEB-2023)
REMARK   3   AUTHORS     : BRICOGNE,BLANC,BRANDL,FLENSBURG,KELLER,
REMARK   3               : PACIOREK,ROVERSI,SHARFF,SMART,VONRHEIN,WOMACK;
REMARK   3               : MATTHEWS,TEN EYCK,TRONRUD
REMARK   3
REMARK   3  DATA USED IN REFINEMENT.
REMARK   3   RESOLUTION RANGE HIGH (ANGSTROMS) : 1.143
REMARK   3   RESOLUTION RANGE LOW  (ANGSTROMS) : 16.71
REMARK   3   DATA CUTOFF            (SIGMA(F)) : 0.000
REMARK   3   COMPLETENESS FOR RANGE        (%) : 84.2
REMARK   3   NUMBER OF REFLECTIONS             : 93996
REMARK   3
REMARK   3  FIT TO DATA USED IN REFINEMENT.
REMARK   3   CROSS-VALIDATION METHOD          : THROUGHOUT
REMARK   3   FREE R VALUE TEST SET SELECTION  : RANDOM
REMARK   3   R VALUE     (WORKING + TEST SET) : 0.1781
REMARK   3   R VALUE            (WORKING SET) : 0.1771
REMARK   3   FREE R VALUE                     : 0.1979
REMARK   3   FREE R VALUE TEST SET SIZE   (%) : 4.980
REMARK   3   FREE R VALUE TEST SET COUNT      : 4677
REMARK   3   ESTIMATED ERROR OF FREE R VALUE  : NULL
REMARK   3
REMARK   3  FIT IN THE HIGHEST RESOLUTION BIN.
REMARK   3   TOTAL NUMBER OF BINS USED           : 51
REMARK   3   BIN RESOLUTION RANGE HIGH       (A) : 1.14
REMARK   3   BIN RESOLUTION RANGE LOW        (A) : 1.18
REMARK   3   BIN COMPLETENESS (WORKING+TEST) (%) : 16.89
REMARK   3   REFLECTIONS IN BIN   (WORKING+TEST) : 1880
REMARK   3   BIN R VALUE          (WORKING+TEST) : 0.3766
REMARK   3   REFLECTIONS IN BIN    (WORKING SET) : 1773
REMARK   3   BIN R VALUE           (WORKING SET) : 0.3766
REMARK   3   BIN FREE R VALUE                    : 0.3763
REMARK   3   BIN FREE R VALUE TEST SET SIZE  (%) : 5.69
REMARK   3   BIN FREE R VALUE TEST SET COUNT     : 107
REMARK   3   ESTIMATED ERROR OF BIN FREE R VALUE : NULL
REMARK   3
REMARK   3  NUMBER OF NON-HYDROGEN ATOMS USED IN REFINEMENT.
REMARK   3   PROTEIN ATOMS            : 2519
REMARK   3   NUCLEIC ACID ATOMS       : 0
REMARK   3   HETEROGEN ATOMS          : 20
REMARK   3   SOLVENT ATOMS            : 457
REMARK   3
REMARK   3  B VALUES.
REMARK   3   FROM WILSON PLOT           (A**2) : 13.11
REMARK   3   MEAN B VALUE      (OVERALL, A**2) : 20.07
REMARK   3   OVERALL ANISOTROPIC B VALUE.
REMARK   3    B11 (A**2) : 3.21980
REMARK   3    B22 (A**2) : 3.21980
REMARK   3    B33 (A**2) : -6.43970
REMARK   3    B12 (A**2) : 0.00000
REMARK   3    B13 (A**2) : 0.00000
REMARK   3    B23 (A**2) : 0.00000
REMARK   3
REMARK   3  ESTIMATED COORDINATE ERROR.
REMARK   3   ESD FROM LUZZATI PLOT                    (A) : 0.16
REMARK   3   DPI (BLOW EQ-10) BASED ON R VALUE        (A) : 0.044
REMARK   3   DPI (BLOW EQ-9) BASED ON FREE R VALUE    (A) : 0.046
REMARK   3   DPI (CRUICKSHANK) BASED ON R VALUE       (A) : 0.042
REMARK   3   DPI (CRUICKSHANK) BASED ON FREE R VALUE  (A) : 0.043
REMARK   3
REMARK   3   REFERENCES: BLOW, D. (2002) ACTA CRYST D58, 792-797
REMARK   3               CRUICKSHANK, D.W.J. (1999) ACTA CRYST D55, 583-601
REMARK   3
REMARK   3  CORRELATION COEFFICIENTS.
REMARK   3   CORRELATION COEFFICIENT FO-FC      : 0.958
REMARK   3   CORRELATION COEFFICIENT FO-FC FREE : 0.956
REMARK   3
REMARK   3  X-RAY WEIGHT : 6.07
REMARK   3
REMARK   3  GEOMETRY FUNCTION.                                                  
REMARK   3   RESTRAINT LIBRARIES.                                               
REMARK   3    NUMBER OF LIBRARIES USED :   9                                    
REMARK   3    LIBRARY  1 : protgeo_eh99.dat (V1.6.4.20) 20220523  STANDARD      
REMARK   3                 AMINO ACID DICTIONARY. BONDS AND ANGLES FROM         
REMARK   3                 ENGH AND HUBER EH99. OTHER VALUES BASED ON           
REMARK   3                 PREVIOUS TNT OR TAKEN FROM CCP4. INCLUDES            
REMARK   3                 HYDROGEN ATOMS.                                      
REMARK   3    LIBRARY  2 : exoticaa.dat (V1.3.4.16) 20220523  COLLECTION        
REMARK   3                 OF NON-STANDARD AMINO ACIDS, MAINLY EH91             
REMARK   3                 WITHOUT IDEAL DISTANCE INFO                          
REMARK   3    LIBRARY  3 : nuclgeo.dat (V1.13.4.9) 20221011                     
REMARK   3    LIBRARY  4 : bcorrel.dat (V1.15.10.2) 20190616                    
REMARK   3    LIBRARY  5 : contact.dat (V1.15.12.10) 20191121                   
REMARK   3    LIBRARY  6 : idealdist_contact.dat (V1.3.4.13) 20220125           
REMARK   3                 IDEAL-DISTANCE CONTACT TERM DATA AS USED IN          
REMARK   3                 PROLSQ. VALUES USED HERE ARE BASED ON DATA           
REMARK   3                 HARVESTING OF PDB AS OF 20190109.                    
REMARK   3    LIBRARY  7 : restraints for LIG (unknown) from cif                
REMARK   3                 dictionary ASAP-0000453-001.cif; generated by        
REMARK   3                 GRADE 1.2.21 (Feb 03 2022) from SMILES               
REMARK   3                 CC(C)[C@H](CO)Nc1ncnc2[nH]ccc12 using MOGUL          
REMARK   3                 1.8.5(274361), CSD as541be, with quantum             
REMARK   3                 mechanics RM1                                        
REMARK   3    LIBRARY  8 : restraints for DMS (DIMETHYL SULFOXIDE) from         
REMARK   3                 cif dictionary DMS.cif; generated by grade2          
REMARK   3                 version 1.1.0a7 from                                 
REMARK   3                 PDB_chemical_components_definition_file              
REMARK   3                 ftp://ftp.ebi.ac.uk/pub/databases/msd/pdbechem_v     
REMARK   3                 2/D/DMS/DMS.cif using RDKit 2021.03.4                
REMARK   3                 ((DatabaseID PDB-DMS))                               
REMARK   3    LIBRARY  9 : assume.dat (V1.9.4.3) 20221011                       
REMARK   3                                                                      
REMARK   3   NUMBER OF GEOMETRIC FUNCTION TERMS DEFINED : 15                    
REMARK   3   TERM                          COUNT    WEIGHT   FUNCTION.          
REMARK   3    BOND LENGTHS              :   2682 ;   2.00 ;  HARMONIC           
REMARK   3    BOND ANGLES               :   3664 ;   2.00 ;  HARMONIC           
REMARK   3    TORSION ANGLES            :    924 ;   2.00 ;  SINUSOIDAL         
REMARK   3    TRIGONAL CARBON PLANES    :   NULL ;   NULL ;  NULL               
REMARK   3    GENERAL PLANES            :    481 ;   5.00 ;  HARMONIC           
REMARK   3    ISOTROPIC THERMAL FACTORS :   2682 ;  10.00 ;  HARMONIC           
REMARK   3    BAD NON-BONDED CONTACTS   :   NULL ;   NULL ;  NULL               
REMARK   3    IMPROPER TORSIONS         :   NULL ;   NULL ;  NULL               
REMARK   3    PSEUDOROTATION ANGLES     :   NULL ;   NULL ;  NULL               
REMARK   3    CHIRAL IMPROPER TORSION   :    347 ;   5.00 ;  SEMIHARMONIC       
REMARK   3    SUM OF OCCUPANCIES        :   NULL ;   NULL ;  NULL               
REMARK   3    UTILITY DISTANCES         :   NULL ;   NULL ;  NULL               
REMARK   3    UTILITY ANGLES            :   NULL ;   NULL ;  NULL               
REMARK   3    UTILITY TORSION           :   NULL ;   NULL ;  NULL               
REMARK   3    IDEAL-DIST CONTACT TERM   :   3010 ;   4.00 ;  SEMIHARMONIC       
REMARK   3                                                                      
REMARK   3   RMS DEVIATIONS FROM IDEAL VALUES.                                  
REMARK   3   BOND LENGTHS                       (A) : 0.014                     
REMARK   3   BOND ANGLES                  (DEGREES) : 1.25                      
REMARK   3   PEPTIDE OMEGA TORSION ANGLES (DEGREES) : 5.12                      
REMARK   3   OTHER TORSION ANGLES         (DEGREES) : 14.85                     
REMARK   3                                                                      
REMARK   3   SIMILARITY.                                                        
REMARK   3    NCS.                                                              
REMARK   3     NCS METHOD: RESTRAINT LSSR (-AUTONCS)                            
REMARK   3    TARGET RESTRAINTS.                                                
REMARK   3     TARGET REPRESENTATION : NONE                                     
REMARK   3     TARGET STRUCTURE : NULL                                          
REMARK   3                                                                      
REMARK   3  TLS DETAILS.                                                        
REMARK   3   NUMBER OF TLS GROUPS  :            2                               
REMARK   3                                                                      
REMARK   3   TLS GROUP :            1                                           
REMARK   3    SET : { A|* }                                                     
REMARK   3    ORIGIN FOR THE GROUP (A):    4.3634   21.1847   -0.2976           
REMARK   3    T TENSOR                                                          
REMARK   3     T11:    0.0020 T22:   -0.0103                                    
REMARK   3     T33:   -0.0141 T12:    0.0001                                    
REMARK   3     T13:   -0.0217 T23:    0.0056                                    
REMARK   3    L TENSOR                                                          
REMARK   3     L11:    0.8704 L22:    0.7643                                    
REMARK   3     L33:    0.0352 L12:   -0.2081                                    
REMARK   3     L13:    0.0803 L23:   -0.0003                                    
REMARK   3    S TENSOR                                                          
REMARK   3     S11:    0.0086 S12:   -0.0033 S13:   -0.0382                     
REMARK   3     S21:    0.0458 S22:   -0.0020 S23:   -0.0644                     
REMARK   3     S31:    0.0071 S32:   -0.0261 S33:   -0.0066                     
REMARK   3                                                                      
REMARK   3   TLS GROUP :            2                                           
REMARK   3    SET : { B|* }                                                     
REMARK   3    ORIGIN FOR THE GROUP (A):   22.4314   43.1694   -7.9913           
REMARK   3    T TENSOR                                                          
REMARK   3     T11:   -0.0197 T22:   -0.0096                                    
REMARK   3     T33:   -0.0025 T12:    0.0058                                    
REMARK   3     T13:   -0.0051 T23:    0.0021                                    
REMARK   3    L TENSOR                                                          
REMARK   3     L11:    0.7674 L22:    0.9689                                    
REMARK   3     L33:    0.1975 L12:   -0.0671                                    
REMARK   3     L13:   -0.2311 L23:    0.1526                                    
REMARK   3    S TENSOR                                                          
REMARK   3     S11:    0.0506 S12:   -0.0120 S13:   -0.0597                     
REMARK   3     S21:   -0.0138 S22:   -0.0515 S23:   -0.0846                     
REMARK   3     S31:   -0.0440 S32:   -0.0143 S33:    0.0009                     
REMARK   3                                                                      
REMARK   3  REFINEMENT NOTES.                                                   
REMARK   3   NUMBER OF REFINEMENT NOTES :   1                                   
REMARK   3   NOTE   1 : IDEAL-DIST CONTACT TERM CONTACT SETUP. ALL ATOMS        
REMARK   3               HAVE CCP4 ATOM TYPE FROM LIBRARY                       
REMARK   3
REMARK   3  OTHER REFINEMENT REMARKS: NULL
REMARK   3
REMARK 290                                                            
REMARK 290 CRYSTALLOGRAPHIC SYMMETRY                                  
REMARK 290 SYMMETRY OPERATORS FOR SPACE GROUP: P 43                   
REMARK 290                                                            
REMARK 290      SYMOP   SYMMETRY                                      
REMARK 290     NNNMMM   OPERATOR                                      
REMARK 290       1555   X,Y,Z                                         
REMARK 290       2555   -X,-Y,1/2+Z                                   
REMARK 290       3555   -Y,X,3/4+Z                                    
REMARK 290       4555   Y,-X,1/4+Z                                    
REMARK 290                                                            
REMARK 290     WHERE NNN -> OPERATOR NUMBER                           
REMARK 290           MMM -> TRANSLATION VECTOR                        
REMARK 290                                                            
REMARK 290 CRYSTALLOGRAPHIC SYMMETRY TRANSFORMATIONS                  
REMARK 290 THE FOLLOWING TRANSFORMATIONS OPERATE ON THE ATOM/HETATM   
REMARK 290 RECORDS IN THIS ENTRY TO PRODUCE CRYSTALLOGRAPHICALLY      
REMARK 290 RELATED MOLECULES.                                         
REMARK 290   SMTRY1   1  1.000000  0.000000  0.000000        0.00000
REMARK 290   SMTRY2   1  0.000000  1.000000  0.000000        0.00000
REMARK 290   SMTRY3   1  0.000000  0.000000  1.000000        0.00000
REMARK 290   SMTRY1   2 -1.000000  0.000000  0.000000        0.00000
REMARK 290   SMTRY2   2  0.000000 -1.000000  0.000000        0.00000
REMARK 290   SMTRY3   2  0.000000  0.000000  1.000000       19.72650
REMARK 290   SMTRY1   3  0.000000 -1.000000  0.000000        0.00000
REMARK 290   SMTRY2   3  1.000000  0.000000  0.000000        0.00000
REMARK 290   SMTRY3   3  0.000000  0.000000  1.000000       29.58975
REMARK 290   SMTRY1   4  0.000000  1.000000  0.000000        0.00000
REMARK 290   SMTRY2   4 -1.000000  0.000000  0.000000        0.00000
REMARK 290   SMTRY3   4  0.000000  0.000000  1.000000        9.86325
REMARK 290                                                            
REMARK 290 REMARK: NULL                                               
CRYST1   88.890   88.890   39.453  90.00  90.00  90.00 P 43           


$$$$
SARS2_Mac1A-A0662
  PyMOL3.0          3D                             0

 25 28  0  0  0  0  0  0  0  0999 V2000
    0.1250   11.7960   -4.8640 N   0  0  0  0  0  0  0  0  0  0  0  0
    0.6060   11.6020   -6.0900 C   0  0  0  0  0  0  0  0  0  0  0  0
    1.5150   12.2840   -6.5720 O   0  0  0  0  0  0  0  0  0  0  0  0
    0.5800   12.8740   -3.9970 C   0  0  0  0  0  0  0  0  0  0  0  0
   -0.9300    9.7240   -6.2140 N   0  0  0  0  0  0  0  0  0  0  0  0
    0.7910   13.1890   -1.6200 O   0  0  0  0  0  0  0  0  0  0  0  0
    0.4120   12.4640   -2.5380 C   0  0  0  0  0  0  0  0  0  0  0  0
   -1.4540    8.5000   -8.2220 N   0  0  0  0  0  0  0  0  0  0  0  0
   -0.1770   11.3060   -2.3890 O   0  0  0  0  0  0  0  0  0  0  0  0
   -0.1660   14.1800   -4.2640 C   0  0  0  0  0  0  0  0  0  0  0  0
   -0.1230    9.1630  -10.1250 N   0  0  0  0  0  0  0  0  0  0  0  0
   -2.0200   17.8200   -4.9890 O   0  0  0  0  0  0  0  0  0  0  0  0
   -1.5560   14.2090   -4.3910 C   0  0  0  0  0  0  0  0  0  0  0  0
   -2.2270   15.4030   -4.5980 C   0  0  0  0  0  0  0  0  0  0  0  0
   -1.4930   16.5680   -4.7390 C   0  0  0  0  0  0  0  0  0  0  0  0
   -0.1230   16.5800   -4.6410 C   0  0  0  0  0  0  0  0  0  0  0  0
    0.5400   15.3740   -4.4010 C   0  0  0  0  0  0  0  0  0  0  0  0
    0.3460   17.9980   -4.8570 C   0  0  0  0  0  0  0  0  0  0  0  0
   -0.9000   18.6150   -5.4560 C   0  0  0  0  0  0  0  0  0  0  0  0
   -0.0540   10.5140   -6.8660 C   0  0  0  0  0  0  0  0  0  0  0  0
   -1.5750    8.7910   -6.9250 C   0  0  0  0  0  0  0  0  0  0  0  0
   -0.5410    9.2930   -8.8300 C   0  0  0  0  0  0  0  0  0  0  0  0
    0.8510   10.1070  -10.3550 C   0  0  0  0  0  0  0  0  0  0  0  0
    1.0780   10.8310   -9.2320 C   0  0  0  0  0  0  0  0  0  0  0  0
    0.2000   10.3210   -8.2290 C   0  0  0  0  0  0  0  0  0  0  0  0
  1  2  1  0  0  0  0
  2  3  2  0  0  0  0
  2 20  1  0  0  0  0
  1  4  1  0  0  0  0
  4 10  1  0  0  0  0
  6  7  4  0  0  0  0
  4  7  1  0  0  0  0
  7  9  4  0  0  0  0
  8 21  4  0  0  0  0
 10 13  4  0  0  0  0
 10 17  4  0  0  0  0
 11 22  4  0  0  0  0
 12 15  1  0  0  0  0
 13 14  4  0  0  0  0
 14 15  4  0  0  0  0
 15 16  4  0  0  0  0
 16 18  1  0  0  0  0
 16 17  4  0  0  0  0
 18 19  1  0  0  0  0
 12 19  1  0  0  0  0
  5 20  4  0  0  0  0
 20 25  4  0  0  0  0
  5 21  4  0  0  0  0
  8 22  4  0  0  0  0
 11 23  4  0  0  0  0
 23 24  4  0  0  0  0
 22 25  4  0  0  0  0
 24 25  4  0  0  0  0
M  END
>  <pdb_header>
HEADER    ----                                    18-MAY-20                     
TITLE     ---                                                                   
EXPDTA    X-RAY DIFFRACTION                                                     
REMARK --------------------- added by autoBUSTER ---------------------------------START
REMARK run at   = Mon Mar 27 16:43:49 BST 2023
REMARK     in   = /dls/labxchem/data/lb32627/lb32627-1/processing/analysis/model_building/SARS2_Mac1A-A0662
REMARK     user = ill13029
REMARK     cmd  = \
REMARK            /dls_sw/apps/GPhL/BUSTER/20221121/autoBUSTER/bin/linux64/refine \
REMARK            -p \
REMARK            /dls/labxchem/data/lb32627/lb32627-1/processing/analysis/model_building/SARS2_Mac1A-A0662/cootOut/Refi
REMARK            -m \
REMARK            /dls/labxchem/data/lb32627/lb32627-1/processing/analysis/model_building/SARS2_Mac1A-A0662/SARS2_Mac1A-
REMARK            -l \
REMARK            /dls/labxchem/data/lb32627/lb32627-1/processing/analysis/model_building/SARS2_Mac1A-A0662/ASAP-0000495
REMARK            -autoncs -M ADP -d Refine_7
REMARK Files used:
REMARK   PDB              = Refine_7/pdbchk.pdb
REMARK   MTZ              = /dls/labxchem/data/lb32627/lb32627-1/processing/analysis/model_building/SARS2_Mac1A-A0662/SA
REMARK output written to subdirectory = Refine_7
REMARK best refinement for F,SIGF with R/Rfree 0.1625/0.1934
REMARK header records are copied from input PDB file (apart from REMARK 3!)
REMARK --------------------- added by autoBUSTER -----------------------------------END
REMARK --------------------- added by autoBUSTER -------------------------------
REMARK run at   = Thu Dec 15 10:17:33 GMT 2022                                  
REMARK     in   = /dls/labxchem/data/lb32627/lb32627-1/processing/analysis/model
REMARK     user = ejx48977                                                      
REMARK     cmd  = \                                                             
REMARK            /dls_sw/apps/GPhL/BUSTER/20220608/autoBUSTER/bin/linux64/refin
REMARK            -p \                                                          
REMARK            /dls/labxchem/data/lb32627/lb32627-1/processing/analysis/model
REMARK            -m \                                                          
REMARK            /dls/labxchem/data/lb32627/lb32627-1/processing/analysis/model
REMARK            -l \                                                          
REMARK            /dls/labxchem/data/lb32627/lb32627-1/processing/analysis/model
REMARK            -autoncs -M ADP -B user -Gelly gelly.dat -d Refine_6          
REMARK Files used:                                                              
REMARK   PDB              = Refine_6/pdbchk.pdb                                 
REMARK   MTZ              = /dls/labxchem/data/lb32627/lb32627-1/processing/anal
REMARK   Gelly commands       = /dls/labxchem/data/lb32627/lb32627-1/processing/
REMARK output written to subdirectory = Refine_6                                
REMARK best refinement for F,SIGF with R/Rfree 0.1626/0.1934                    
REMARK header records are copied from input PDB file (apart from REMARK 3!)     
REMARK --------------------- added by autoBUSTER -------------------------------
REMARK --------------------- added by autoBUSTER -------------------------------
REMARK run at   = Thu Dec  8 08:59:53 GMT 2022                                  
REMARK     in   = /dls/labxchem/data/lb32627/lb32627-1/processing/analysis/model
REMARK     user = ill13029                                                      
REMARK     cmd  = \                                                             
REMARK            /dls_sw/apps/GPhL/BUSTER/20220608/autoBUSTER/bin/linux64/refin
REMARK            -p \                                                          
REMARK            /dls/labxchem/data/lb32627/lb32627-1/processing/analysis/model
REMARK            -m \                                                          
REMARK            /dls/labxchem/data/lb32627/lb32627-1/processing/analysis/model
REMARK            -l \                                                          
REMARK            /dls/labxchem/data/lb32627/lb32627-1/processing/analysis/model
REMARK            -autoncs -M ADP -d Refine_5                                   
REMARK Files used:                                                              
REMARK   PDB              = Refine_5/pdbchk.pdb                                 
REMARK   MTZ              = /dls/labxchem/data/lb32627/lb32627-1/processing/anal
REMARK output written to subdirectory = Refine_5                                
REMARK best refinement for F,SIGF with R/Rfree 0.1625/0.1927                    
REMARK header records are copied from input PDB file (apart from REMARK 3!)     
REMARK --------------------- added by autoBUSTER -------------------------------
REMARK --------------------- added by autoBUSTER -------------------------------
REMARK run at   = Wed Dec  7 17:44:31 GMT 2022                                  
REMARK     in   = /dls/labxchem/data/lb32627/lb32627-1/processing/analysis/model
REMARK     user = ill13029                                                      
REMARK     cmd  = \                                                             
REMARK            /dls_sw/apps/GPhL/BUSTER/20220608/autoBUSTER/bin/linux64/refin
REMARK            -p \                                                          
REMARK            /dls/labxchem/data/lb32627/lb32627-1/processing/analysis/model
REMARK            -m \                                                          
REMARK            /dls/labxchem/data/lb32627/lb32627-1/processing/analysis/model
REMARK            -l \                                                          
REMARK            /dls/labxchem/data/lb32627/lb32627-1/processing/analysis/model
REMARK            -autoncs -M ADP -B user -Gelly gelly.dat -d Refine_4          
REMARK Files used:                                                              
REMARK   PDB              = Refine_4/pdbchk.pdb                                 
REMARK   MTZ              = /dls/labxchem/data/lb32627/lb32627-1/processing/anal
REMARK   Gelly commands       = /dls/labxchem/data/lb32627/lb32627-1/processing/
REMARK output written to subdirectory = Refine_4                                
REMARK best refinement for F,SIGF with R/Rfree 0.1626/0.1933                    
REMARK header records are copied from input PDB file (apart from REMARK 3!)     
REMARK --------------------- added by autoBUSTER -------------------------------
REMARK --------------------- added by autoBUSTER -------------------------------
REMARK run at   = Wed Dec  7 16:46:15 GMT 2022                                  
REMARK     in   = /dls/labxchem/data/lb32627/lb32627-1/processing/analysis/model
REMARK     user = ill13029                                                      
REMARK     cmd  = \                                                             
REMARK            /dls_sw/apps/GPhL/BUSTER/20220608/autoBUSTER/bin/linux64/refin
REMARK            -p \                                                          
REMARK            /dls/labxchem/data/lb32627/lb32627-1/processing/analysis/model
REMARK            -m \                                                          
REMARK            /dls/labxchem/data/lb32627/lb32627-1/processing/analysis/model
REMARK            -l \                                                          
REMARK            /dls/labxchem/data/lb32627/lb32627-1/processing/analysis/model
REMARK            -autoncs -M ADP -B user -Gelly gelly.dat -d Refine_3          
REMARK Files used:                                                              
REMARK   PDB              = Refine_3/pdbchk.pdb                                 
REMARK   MTZ              = /dls/labxchem/data/lb32627/lb32627-1/processing/anal
REMARK   Gelly commands       = /dls/labxchem/data/lb32627/lb32627-1/processing/
REMARK output written to subdirectory = Refine_3                                
REMARK best refinement for F,SIGF with R/Rfree 0.1629/0.1940                    
REMARK header records are copied from input PDB file (apart from REMARK 3!)     
REMARK --------------------- added by autoBUSTER -------------------------------
REMARK --------------------- added by autoBUSTER -------------------------------
REMARK run at   = Wed Dec  7 15:50:28 GMT 2022                                  
REMARK     in   = /dls/labxchem/data/lb32627/lb32627-1/processing/analysis/model
REMARK     user = ill13029                                                      
REMARK     cmd  = \                                                             
REMARK            /dls_sw/apps/GPhL/BUSTER/20220608/autoBUSTER/bin/linux64/refin
REMARK            -p \                                                          
REMARK            /dls/labxchem/data/lb32627/lb32627-1/processing/analysis/model
REMARK            -m \                                                          
REMARK            /dls/labxchem/data/lb32627/lb32627-1/processing/analysis/model
REMARK            -l \                                                          
REMARK            /dls/labxchem/data/lb32627/lb32627-1/processing/analysis/model
REMARK            -autoncs -M ADP -d Refine_2                                   
REMARK Files used:                                                              
REMARK   PDB              = Refine_2/pdbchk.pdb                                 
REMARK   MTZ              = /dls/labxchem/data/lb32627/lb32627-1/processing/anal
REMARK output written to subdirectory = Refine_2                                
REMARK best refinement for F,SIGF with R/Rfree 0.1630/0.1946                    
REMARK header records are copied from input PDB file (apart from REMARK 3!)     
REMARK --------------------- added by autoBUSTER -------------------------------
REMARK --------------------- added by autoBUSTER -------------------------------
REMARK run at   = Tue Nov 29 13:56:21 GMT 2022                                  
REMARK     in   = /dls/labxchem/data/lb32627/lb32627-1/processing/analysis/model
REMARK     user = ill13029                                                      
REMARK     cmd  = \                                                             
REMARK            /dls_sw/apps/GPhL/BUSTER/20220608/autoBUSTER/bin/linux64/refin
REMARK            -p \                                                          
REMARK            /dls/labxchem/data/lb32627/lb32627-1/processing/analysis/model
REMARK            -m \                                                          
REMARK            /dls/labxchem/data/lb32627/lb32627-1/processing/analysis/model
REMARK            -l \                                                          
REMARK            /dls/labxchem/data/lb32627/lb32627-1/processing/analysis/model
REMARK            -autoncs -M TLSbasic -d Refine_1                              
REMARK Files used:                                                              
REMARK   PDB              = Refine_1/pdbchk.pdb                                 
REMARK   MTZ              = /dls/labxchem/data/lb32627/lb32627-1/processing/anal
REMARK output written to subdirectory = Refine_1                                
REMARK best refinement for F,SIGF with R/Rfree 0.1813/0.2074                    
REMARK header records are copied from input PDB file (apart from REMARK 3!)     
REMARK --------------------- added by autoBUSTER -------------------------------
REMARK   2                                                            
REMARK   2 RESOLUTION.    1.16 ANGSTROMS.
REMARK   3
REMARK   3 REFINEMENT.
REMARK   3   PROGRAM     : BUSTER 2.10.4 (21-NOV-2022)
REMARK   3   AUTHORS     : BRICOGNE,BLANC,BRANDL,FLENSBURG,KELLER,
REMARK   3               : PACIOREK,ROVERSI,SHARFF,SMART,VONRHEIN,WOMACK;
REMARK   3               : MATTHEWS,TEN EYCK,TRONRUD
REMARK   3
REMARK   3  DATA USED IN REFINEMENT.
REMARK   3   RESOLUTION RANGE HIGH (ANGSTROMS) : 1.160
REMARK   3   RESOLUTION RANGE LOW  (ANGSTROMS) : 16.75
REMARK   3   DATA CUTOFF            (SIGMA(F)) : 0.000
REMARK   3   COMPLETENESS FOR RANGE        (%) : 84.0
REMARK   3   NUMBER OF REFLECTIONS             : 90365
REMARK   3
REMARK   3  FIT TO DATA USED IN REFINEMENT.
REMARK   3   CROSS-VALIDATION METHOD          : THROUGHOUT
REMARK   3   FREE R VALUE TEST SET SELECTION  : RANDOM
REMARK   3   R VALUE     (WORKING + TEST SET) : 0.1640
REMARK   3   R VALUE            (WORKING SET) : 0.1625
REMARK   3   FREE R VALUE                     : 0.1934
REMARK   3   FREE R VALUE TEST SET SIZE   (%) : 4.980
REMARK   3   FREE R VALUE TEST SET COUNT      : 4496
REMARK   3   ESTIMATED ERROR OF FREE R VALUE  : NULL
REMARK   3
REMARK   3  FIT IN THE HIGHEST RESOLUTION BIN.
REMARK   3   TOTAL NUMBER OF BINS USED           : 51
REMARK   3   BIN RESOLUTION RANGE HIGH       (A) : 1.16
REMARK   3   BIN RESOLUTION RANGE LOW        (A) : 1.19
REMARK   3   BIN COMPLETENESS (WORKING+TEST) (%) : 23.20
REMARK   3   REFLECTIONS IN BIN   (WORKING+TEST) : 1808
REMARK   3   BIN R VALUE          (WORKING+TEST) : 0.4568
REMARK   3   REFLECTIONS IN BIN    (WORKING SET) : 1719
REMARK   3   BIN R VALUE           (WORKING SET) : 0.4565
REMARK   3   BIN FREE R VALUE                    : 0.4636
REMARK   3   BIN FREE R VALUE TEST SET SIZE  (%) : 4.92
REMARK   3   BIN FREE R VALUE TEST SET COUNT     : 89
REMARK   3   ESTIMATED ERROR OF BIN FREE R VALUE : NULL
REMARK   3
REMARK   3  NUMBER OF NON-HYDROGEN ATOMS USED IN REFINEMENT.
REMARK   3   PROTEIN ATOMS            : 2519
REMARK   3   NUCLEIC ACID ATOMS       : 0
REMARK   3   HETEROGEN ATOMS          : 37
REMARK   3   SOLVENT ATOMS            : 398
REMARK   3
REMARK   3  B VALUES.
REMARK   3   FROM WILSON PLOT           (A**2) : 15.39
REMARK   3   MEAN B VALUE      (OVERALL, A**2) : 22.80
REMARK   3   OVERALL ANISOTROPIC B VALUE.
REMARK   3    B11 (A**2) : 4.31030
REMARK   3    B22 (A**2) : 4.31030
REMARK   3    B33 (A**2) : -8.62060
REMARK   3    B12 (A**2) : 0.00000
REMARK   3    B13 (A**2) : 0.00000
REMARK   3    B23 (A**2) : 0.00000
REMARK   3
REMARK   3  ESTIMATED COORDINATE ERROR.
REMARK   3   ESD FROM LUZZATI PLOT                    (A) : 0.15
REMARK   3   DPI (BLOW EQ-10) BASED ON R VALUE        (A) : 0.041
REMARK   3   DPI (BLOW EQ-9) BASED ON FREE R VALUE    (A) : 0.045
REMARK   3   DPI (CRUICKSHANK) BASED ON R VALUE       (A) : 0.039
REMARK   3   DPI (CRUICKSHANK) BASED ON FREE R VALUE  (A) : 0.043
REMARK   3
REMARK   3   REFERENCES: BLOW, D. (2002) ACTA CRYST D58, 792-797
REMARK   3               CRUICKSHANK, D.W.J. (1999) ACTA CRYST D55, 583-601
REMARK   3
REMARK   3  CORRELATION COEFFICIENTS.
REMARK   3   CORRELATION COEFFICIENT FO-FC      : 0.957
REMARK   3   CORRELATION COEFFICIENT FO-FC FREE : 0.956
REMARK   3
REMARK   3  X-RAY WEIGHT : 4.43
REMARK   3
REMARK   3  GEOMETRY FUNCTION.                                                  
REMARK   3   RESTRAINT LIBRARIES.                                               
REMARK   3    NUMBER OF LIBRARIES USED :   9                                    
REMARK   3    LIBRARY  1 : protgeo_eh99.dat (V1.6.4.20) 20220523  STANDARD      
REMARK   3                 AMINO ACID DICTIONARY. BONDS AND ANGLES FROM         
REMARK   3                 ENGH AND HUBER EH99. OTHER VALUES BASED ON           
REMARK   3                 PREVIOUS TNT OR TAKEN FROM CCP4. INCLUDES            
REMARK   3                 HYDROGEN ATOMS.                                      
REMARK   3    LIBRARY  2 : exoticaa.dat (V1.3.4.16) 20220523  COLLECTION        
REMARK   3                 OF NON-STANDARD AMINO ACIDS, MAINLY EH91             
REMARK   3                 WITHOUT IDEAL DISTANCE INFO                          
REMARK   3    LIBRARY  3 : nuclgeo.dat (V1.13.4.9) 20221011                     
REMARK   3    LIBRARY  4 : bcorrel.dat (V1.15.10.2) 20190616                    
REMARK   3    LIBRARY  5 : contact.dat (V1.15.12.10) 20191121                   
REMARK   3    LIBRARY  6 : idealdist_contact.dat (V1.3.4.13) 20220125           
REMARK   3                 IDEAL-DISTANCE CONTACT TERM DATA AS USED IN          
REMARK   3                 PROLSQ. VALUES USED HERE ARE BASED ON DATA           
REMARK   3                 HARVESTING OF PDB AS OF 20190109.                    
REMARK   3    LIBRARY  7 : restraints for LIG (unknown) from cif                
REMARK   3                 dictionary ASAP-0000495-001.cif; generated by        
REMARK   3                 GRADE 1.2.21 (Feb 03 2022) from SMILES               
REMARK   3                 O=C(NC(C(=O)O)c1ccc2c(c1)CCO2)c1ncnc2[nH]ccc12       
REMARK   3                 using MOGUL 1.8.5(274361), CSD as541be, with         
REMARK   3                 quantum mechanics RM1                                
REMARK   3    LIBRARY  8 : restraints for DMS (DIMETHYL SULFOXIDE) from         
REMARK   3                 cif dictionary DMS.cif; generated by grade2          
REMARK   3                 version 1.1.0a7 from                                 
REMARK   3                 PDB_chemical_components_definition_file              
REMARK   3                 ftp://ftp.ebi.ac.uk/pub/databases/msd/pdbechem_v     
REMARK   3                 2/D/DMS/DMS.cif using RDKit 2021.03.4                
REMARK   3                 ((DatabaseID PDB-DMS))                               
REMARK   3    LIBRARY  9 : assume.dat (V1.9.4.3) 20221011                       
REMARK   3                                                                      
REMARK   3   NUMBER OF GEOMETRIC FUNCTION TERMS DEFINED : 15                    
REMARK   3   TERM                          COUNT    WEIGHT   FUNCTION.          
REMARK   3    BOND LENGTHS              :   2643 ;   2.00 ;  HARMONIC           
REMARK   3    BOND ANGLES               :   3601 ;   2.00 ;  HARMONIC           
REMARK   3    TORSION ANGLES            :    905 ;   2.00 ;  SINUSOIDAL         
REMARK   3    TRIGONAL CARBON PLANES    :   NULL ;   NULL ;  NULL               
REMARK   3    GENERAL PLANES            :    480 ;   5.00 ;  HARMONIC           
REMARK   3    ISOTROPIC THERMAL FACTORS :   2606 ;  10.00 ;  HARMONIC           
REMARK   3    BAD NON-BONDED CONTACTS   :   NULL ;   NULL ;  NULL               
REMARK   3    IMPROPER TORSIONS         :   NULL ;   NULL ;  NULL               
REMARK   3    PSEUDOROTATION ANGLES     :   NULL ;   NULL ;  NULL               
REMARK   3    CHIRAL IMPROPER TORSION   :    338 ;   5.00 ;  SEMIHARMONIC       
REMARK   3    SUM OF OCCUPANCIES        :   NULL ;   NULL ;  NULL               
REMARK   3    UTILITY DISTANCES         :   NULL ;   NULL ;  NULL               
REMARK   3    UTILITY ANGLES            :   NULL ;   NULL ;  NULL               
REMARK   3    UTILITY TORSION           :   NULL ;   NULL ;  NULL               
REMARK   3    IDEAL-DIST CONTACT TERM   :   2560 ;   4.00 ;  SEMIHARMONIC       
REMARK   3                                                                      
REMARK   3   RMS DEVIATIONS FROM IDEAL VALUES.                                  
REMARK   3   BOND LENGTHS                       (A) : 0.014                     
REMARK   3   BOND ANGLES                  (DEGREES) : 1.24                      
REMARK   3   PEPTIDE OMEGA TORSION ANGLES (DEGREES) : 5.24                      
REMARK   3   OTHER TORSION ANGLES         (DEGREES) : 14.49                     
REMARK   3                                                                      
REMARK   3   SIMILARITY.                                                        
REMARK   3    NCS.                                                              
REMARK   3     NCS METHOD: RESTRAINT LSSR (-AUTONCS)                            
REMARK   3    TARGET RESTRAINTS.                                                
REMARK   3     TARGET REPRESENTATION : NONE                                     
REMARK   3     TARGET STRUCTURE : NULL                                          
REMARK   3                                                                      
REMARK   3  TLS DETAILS.                                                        
REMARK   3   NUMBER OF TLS GROUPS  :            0                               
REMARK   3                                                                      
REMARK   3  REFINEMENT NOTES.                                                   
REMARK   3   NUMBER OF REFINEMENT NOTES :   1                                   
REMARK   3   NOTE   1 : IDEAL-DIST CONTACT TERM CONTACT SETUP. ALL ATOMS        
REMARK   3               HAVE CCP4 ATOM TYPE FROM LIBRARY                       
REMARK   3
REMARK   3  OTHER REFINEMENT REMARKS: NULL
REMARK   3
REMARK 290                                                            
REMARK 290 CRYSTALLOGRAPHIC SYMMETRY                                  
REMARK 290 SYMMETRY OPERATORS FOR SPACE GROUP: P 43                   
REMARK 290                                                            
REMARK 290      SYMOP   SYMMETRY                                      
REMARK 290     NNNMMM   OPERATOR                                      
REMARK 290       1555   X,Y,Z                                         
REMARK 290       2555   -X,-Y,1/2+Z                                   
REMARK 290       3555   -Y,X,3/4+Z                                    
REMARK 290       4555   Y,-X,1/4+Z                                    
REMARK 290                                                            
REMARK 290     WHERE NNN -> OPERATOR NUMBER                           
REMARK 290           MMM -> TRANSLATION VECTOR                        
REMARK 290                                                            
REMARK 290 CRYSTALLOGRAPHIC SYMMETRY TRANSFORMATIONS                  
REMARK 290 THE FOLLOWING TRANSFORMATIONS OPERATE ON THE ATOM/HETATM   
REMARK 290 RECORDS IN THIS ENTRY TO PRODUCE CRYSTALLOGRAPHICALLY      
REMARK 290 RELATED MOLECULES.                                         
REMARK 290   SMTRY1   1  1.000000  0.000000  0.000000        0.00000
REMARK 290   SMTRY2   1  0.000000  1.000000  0.000000        0.00000
REMARK 290   SMTRY3   1  0.000000  0.000000  1.000000        0.00000
REMARK 290   SMTRY1   2 -1.000000  0.000000  0.000000        0.00000
REMARK 290   SMTRY2   2  0.000000 -1.000000  0.000000        0.00000
REMARK 290   SMTRY3   2  0.000000  0.000000  1.000000       19.77000
REMARK 290   SMTRY1   3  0.000000 -1.000000  0.000000        0.00000
REMARK 290   SMTRY2   3  1.000000  0.000000  0.000000        0.00000
REMARK 290   SMTRY3   3  0.000000  0.000000  1.000000       29.65500
REMARK 290   SMTRY1   4  0.000000  1.000000  0.000000        0.00000
REMARK 290   SMTRY2   4 -1.000000  0.000000  0.000000        0.00000
REMARK 290   SMTRY3   4  0.000000  0.000000  1.000000        9.88500
REMARK 290                                                            
REMARK 290 REMARK: NULL                                               
REMARK 300
REMARK 300 BIOMOLECULE: 1
REMARK 300 SEE REMARK 350 FOR THE AUTHOR PROVIDED AND/OR PROGRAM
REMARK 300 GENERATED ASSEMBLY INFORMATION FOR THE STRUCTURE IN
REMARK 300 THIS ENTRY. THE REMARK MAY ALSO  PROVIDE INFORMATION ON
REMARK 300 BURIED SURFACE AREA.
REMARK 350
REMARK 350 COORDINATES FOR A COMPLETE MULTIMER REPRESENTING THE KNOWN
REMARK 350 BIOLOGICALLY SIGNIFICANT OLIGOMERIZATION STATE OF THE
REMARK 350 MOLECULE CAN BE GENERATED BY APPLYING BIOMT TRANSFORMATIONS
REMARK 350 GIVEN BELOW. BOTH NON-CRYSTALLOGRAPHIC AND
REMARK 350 CRYSTALLOGRAPHIC OPERATIONS ARE GIVEN.
REMARK 350
REMARK 350 BIOMOLECULE: 1
REMARK 350 SOFTWARE DETERMINED QUATERNARY STRUCTURE: DIMERIC
REMARK 350 SOFTWARE USED: PISA
REMARK 350 TOTAL BURIED SURFACE AREA: 4597 ANGSTROM**2
REMARK 350 SURFACE AREA OF THE COMPLEX: 13512 ANGSTROM**2
REMARK 350 CHANGE IN SOLVENT FREE ENERGY: -45.1 KCAL/MOL
REMARK 350 APPLY THE FOLLOWING TO CHAINS: A,W
REMARK 350   BIOMT1   1  1.000000  0.000000  0.000000        0.00000
REMARK 350   BIOMT2   1  0.000000  1.000000  0.000000        0.00000
REMARK 350   BIOMT3   1  0.000000  0.000000  1.000000        0.00000
REMARK 350 APPLY THE FOLLOWING TO CHAINS: A,W
REMARK 350   BIOMT1   2  0.500000 -0.866025  0.000000       -0.00000
REMARK 350   BIOMT2   2 -0.866025 -0.500000 -0.000000        0.00000
REMARK 350   BIOMT3   2  0.000000  0.000000 -1.000000       17.89600
CRYST1   89.102   89.102   39.540  90.00  90.00  90.00 P 43                     


$$$$
SARS2_Mac1A-A0763
  PyMOL3.0          3D                             0

 24 26  0  0  0  0  0  0  0  0999 V2000
   -0.4880   15.0270   -2.4960 N   0  0  0  0  0  0  0  0  0  0  0  0
    0.5840   12.5990   -2.9870 C   0  0  0  0  0  0  0  0  0  0  0  0
   -0.2020   11.6600   -3.0710 O   0  0  0  0  0  0  0  0  0  0  0  0
    0.7570   13.6720   -4.0670 C   0  0  0  0  0  0  0  0  0  0  0  0
   -0.5400   15.2460    0.1110 N   0  0  0  0  0  0  0  0  0  0  0  0
    1.3070   12.7870   -1.9260 O   0  0  0  0  0  0  0  0  0  0  0  0
   -0.2870   14.7900   -3.9070 C   0  0  0  0  0  0  0  0  0  0  0  0
   -1.5740   15.3650    2.2680 N   0  0  0  0  0  0  0  0  0  0  0  0
   -2.7040   15.3590   -2.6740 O   0  0  0  0  0  0  0  0  0  0  0  0
   -1.6980   15.2200   -1.9860 C   0  0  0  0  0  0  0  0  0  0  0  0
   -3.9720   15.6040    2.2010 N   0  0  0  0  0  0  0  0  0  0  0  0
   -1.7300   15.3360   -0.5060 C   0  0  0  0  0  0  0  0  0  0  0  0
   -0.5370   15.2530    1.4420 C   0  0  0  0  0  0  0  0  0  0  0  0
   -2.7440   15.4680    1.6200 C   0  0  0  0  0  0  0  0  0  0  0  0
   -4.9100   15.6680    1.2010 C   0  0  0  0  0  0  0  0  0  0  0  0
   -4.3120   15.5750   -0.0140 C   0  0  0  0  0  0  0  0  0  0  0  0
   -2.9130   15.4600    0.2290 C   0  0  0  0  0  0  0  0  0  0  0  0
   -0.0200   16.1160   -4.5820 C   0  0  0  0  0  0  0  0  0  0  0  0
    1.1580   16.8220   -4.3880 C   0  0  0  0  0  0  0  0  0  0  0  0
    1.3510   18.0600   -4.9740 C   0  0  0  0  0  0  0  0  0  0  0  0
    0.3360   18.5850   -5.7190 C   0  0  0  0  0  0  0  0  0  0  0  0
   -0.8730   17.9700   -5.8670 C   0  0  0  0  0  0  0  0  0  0  0  0
   -1.0390   16.7170   -5.3080 C   0  0  0  0  0  0  0  0  0  0  0  0
    0.5770   19.6690   -6.4550 F   0  0  0  0  0  0  0  0  0  0  0  0
  1 10  1  0  0  0  0
  2  3  4  0  0  0  0
  2  6  4  0  0  0  0
  2  4  1  0  0  0  0
  1  7  1  0  0  0  0
  4  7  1  0  0  0  0
  8 13  4  0  0  0  0
  9 10  2  0  0  0  0
 10 12  1  0  0  0  0
 11 14  4  0  0  0  0
  5 12  4  0  0  0  0
 12 17  4  0  0  0  0
  5 13  4  0  0  0  0
  8 14  4  0  0  0  0
 11 15  4  0  0  0  0
 15 16  4  0  0  0  0
 14 17  4  0  0  0  0
 16 17  4  0  0  0  0
  7 18  1  0  0  0  0
 18 19  4  0  0  0  0
 19 20  4  0  0  0  0
 20 21  4  0  0  0  0
 21 22  4  0  0  0  0
 22 23  4  0  0  0  0
 18 23  4  0  0  0  0
 21 24  1  0  0  0  0
M  END
>  <pdb_header>
HEADER    ----                                    18-MAY-20                     
TITLE     ---                                                                   
EXPDTA    X-RAY DIFFRACTION                                                     
REMARK --------------------- added by autoBUSTER ---------------------------------START
REMARK run at   = Mon Apr 17 10:48:57 BST 2023
REMARK     in   = /dls/labxchem/data/lb32627/lb32627-1/processing/analysis/model_building/SARS2_Mac1A-A0763
REMARK     user = dcn76311
REMARK     cmd  = \
REMARK            /dls_sw/apps/GPhL/BUSTER/20230217/autoBUSTER/bin/linux64/refine \
REMARK            -p \
REMARK            /dls/labxchem/data/lb32627/lb32627-1/processing/analysis/model_building/SARS2_Mac1A-A0763/cootOut/Refi
REMARK            -m \
REMARK            /dls/labxchem/data/lb32627/lb32627-1/processing/analysis/model_building/SARS2_Mac1A-A0763/SARS2_Mac1A-
REMARK            -l \
REMARK            /dls/labxchem/data/lb32627/lb32627-1/processing/analysis/model_building/SARS2_Mac1A-A0763/ASAP-0000588
REMARK            -autoncs -M TLSbasic -d Refine_11
REMARK Files used:
REMARK   PDB              = Refine_11/pdbchk.pdb
REMARK   MTZ              = /dls/labxchem/data/lb32627/lb32627-1/processing/analysis/model_building/SARS2_Mac1A-A0763/SA
REMARK output written to subdirectory = Refine_11
REMARK best refinement for F,SIGF with R/Rfree 0.1848/0.2120
REMARK header records are copied from input PDB file (apart from REMARK 3!)
REMARK --------------------- added by autoBUSTER -----------------------------------END
REMARK --------------------- added by autoBUSTER -------------------------------
REMARK run at   = Fri Feb 10 14:35:13 GMT 2023                                  
REMARK     in   = /dls/labxchem/data/lb32627/lb32627-1/processing/analysis/model
REMARK     user = dcn76311                                                      
REMARK     cmd  = \                                                             
REMARK            /dls_sw/apps/GPhL/BUSTER/20221121/autoBUSTER/bin/linux64/refin
REMARK            -p \                                                          
REMARK            /dls/labxchem/data/lb32627/lb32627-1/processing/analysis/model
REMARK            -m \                                                          
REMARK            /dls/labxchem/data/lb32627/lb32627-1/processing/analysis/model
REMARK            -l \                                                          
REMARK            /dls/labxchem/data/lb32627/lb32627-1/processing/analysis/model
REMARK            -autoncs -M TLSbasic -d Refine_10                             
REMARK Files used:                                                              
REMARK   PDB              = Refine_10/pdbchk.pdb                                
REMARK   MTZ              = /dls/labxchem/data/lb32627/lb32627-1/processing/anal
REMARK output written to subdirectory = Refine_10                               
REMARK best refinement for F,SIGF with R/Rfree 0.1851/0.2121                    
REMARK header records are copied from input PDB file (apart from REMARK 3!)     
REMARK --------------------- added by autoBUSTER -------------------------------
REMARK --------------------- added by autoBUSTER -------------------------------
REMARK run at   = Fri Feb 10 14:06:42 GMT 2023                                  
REMARK     in   = /dls/labxchem/data/lb32627/lb32627-1/processing/analysis/model
REMARK     user = dcn76311                                                      
REMARK     cmd  = \                                                             
REMARK            /dls_sw/apps/GPhL/BUSTER/20221121/autoBUSTER/bin/linux64/refin
REMARK            -p \                                                          
REMARK            /dls/labxchem/data/lb32627/lb32627-1/processing/analysis/model
REMARK            -m \                                                          
REMARK            /dls/labxchem/data/lb32627/lb32627-1/processing/analysis/model
REMARK            -l \                                                          
REMARK            /dls/labxchem/data/lb32627/lb32627-1/processing/analysis/model
REMARK            -autoncs -M TLSbasic -d Refine_9                              
REMARK Files used:                                                              
REMARK   PDB              = Refine_9/pdbchk.pdb                                 
REMARK   MTZ              = /dls/labxchem/data/lb32627/lb32627-1/processing/anal
REMARK output written to subdirectory = Refine_9                                
REMARK best refinement for F,SIGF with R/Rfree 0.1853/0.2124                    
REMARK header records are copied from input PDB file (apart from REMARK 3!)     
REMARK --------------------- added by autoBUSTER -------------------------------
REMARK --------------------- added by autoBUSTER -------------------------------
REMARK run at   = Fri Feb 10 13:37:10 GMT 2023                                  
REMARK     in   = /dls/labxchem/data/lb32627/lb32627-1/processing/analysis/model
REMARK     user = dcn76311                                                      
REMARK     cmd  = \                                                             
REMARK            /dls_sw/apps/GPhL/BUSTER/20221121/autoBUSTER/bin/linux64/refin
REMARK            -p \                                                          
REMARK            /dls/labxchem/data/lb32627/lb32627-1/processing/analysis/model
REMARK            -m \                                                          
REMARK            /dls/labxchem/data/lb32627/lb32627-1/processing/analysis/model
REMARK            -l \                                                          
REMARK            /dls/labxchem/data/lb32627/lb32627-1/processing/analysis/model
REMARK            -autoncs -M TLSbasic -d Refine_8                              
REMARK Files used:                                                              
REMARK   PDB              = Refine_8/pdbchk.pdb                                 
REMARK   MTZ              = /dls/labxchem/data/lb32627/lb32627-1/processing/anal
REMARK output written to subdirectory = Refine_8                                
REMARK best refinement for F,SIGF with R/Rfree 0.1855/0.2124                    
REMARK header records are copied from input PDB file (apart from REMARK 3!)     
REMARK --------------------- added by autoBUSTER -------------------------------
REMARK --------------------- added by autoBUSTER -------------------------------
REMARK run at   = Fri Feb 10 11:21:28 GMT 2023                                  
REMARK     in   = /dls/labxchem/data/lb32627/lb32627-1/processing/analysis/model
REMARK     user = dcn76311                                                      
REMARK     cmd  = \                                                             
REMARK            /dls_sw/apps/GPhL/BUSTER/20221121/autoBUSTER/bin/linux64/refin
REMARK            -p \                                                          
REMARK            /dls/labxchem/data/lb32627/lb32627-1/processing/analysis/model
REMARK            -m \                                                          
REMARK            /dls/labxchem/data/lb32627/lb32627-1/processing/analysis/model
REMARK            -l \                                                          
REMARK            /dls/labxchem/data/lb32627/lb32627-1/processing/analysis/model
REMARK            -autoncs -M TLSbasic -d Refine_7                              
REMARK Files used:                                                              
REMARK   PDB              = Refine_7/pdbchk.pdb                                 
REMARK   MTZ              = /dls/labxchem/data/lb32627/lb32627-1/processing/anal
REMARK output written to subdirectory = Refine_7                                
REMARK best refinement for F,SIGF with R/Rfree 0.1857/0.2133                    
REMARK header records are copied from input PDB file (apart from REMARK 3!)     
REMARK --------------------- added by autoBUSTER -------------------------------
REMARK --------------------- added by autoBUSTER -------------------------------
REMARK run at   = Fri Feb 10 09:47:21 GMT 2023                                  
REMARK     in   = /dls/labxchem/data/lb32627/lb32627-1/processing/analysis/model
REMARK     user = dcn76311                                                      
REMARK     cmd  = \                                                             
REMARK            /dls_sw/apps/GPhL/BUSTER/20221121/autoBUSTER/bin/linux64/refin
REMARK            -p \                                                          
REMARK            /dls/labxchem/data/lb32627/lb32627-1/processing/analysis/model
REMARK            -m \                                                          
REMARK            /dls/labxchem/data/lb32627/lb32627-1/processing/analysis/model
REMARK            -l \                                                          
REMARK            /dls/labxchem/data/lb32627/lb32627-1/processing/analysis/model
REMARK            -autoncs -M TLSbasic -d Refine_6                              
REMARK Files used:                                                              
REMARK   PDB              = Refine_6/pdbchk.pdb                                 
REMARK   MTZ              = /dls/labxchem/data/lb32627/lb32627-1/processing/anal
REMARK output written to subdirectory = Refine_6                                
REMARK best refinement for F,SIGF with R/Rfree 0.1870/0.2130                    
REMARK header records are copied from input PDB file (apart from REMARK 3!)     
REMARK --------------------- added by autoBUSTER -------------------------------
REMARK --------------------- added by autoBUSTER -------------------------------
REMARK run at   = Thu Feb  9 14:16:23 GMT 2023                                  
REMARK     in   = /dls/labxchem/data/lb32627/lb32627-1/processing/analysis/model
REMARK     user = dcn76311                                                      
REMARK     cmd  = \                                                             
REMARK            /dls_sw/apps/GPhL/BUSTER/20221121/autoBUSTER/bin/linux64/refin
REMARK            -p \                                                          
REMARK            /dls/labxchem/data/lb32627/lb32627-1/processing/analysis/model
REMARK            -m \                                                          
REMARK            /dls/labxchem/data/lb32627/lb32627-1/processing/analysis/model
REMARK            -l \                                                          
REMARK            /dls/labxchem/data/lb32627/lb32627-1/processing/analysis/model
REMARK            -autoncs -M TLSbasic -d Refine_5                              
REMARK Files used:                                                              
REMARK   PDB              = Refine_5/pdbchk.pdb                                 
REMARK   MTZ              = /dls/labxchem/data/lb32627/lb32627-1/processing/anal
REMARK output written to subdirectory = Refine_5                                
REMARK best refinement for F,SIGF with R/Rfree 0.1873/0.2147                    
REMARK header records are copied from input PDB file (apart from REMARK 3!)     
REMARK --------------------- added by autoBUSTER -------------------------------
REMARK --------------------- added by autoBUSTER -------------------------------
REMARK run at   = Thu Feb  9 13:14:16 GMT 2023                                  
REMARK     in   = /dls/labxchem/data/lb32627/lb32627-1/processing/analysis/model
REMARK     user = dcn76311                                                      
REMARK     cmd  = \                                                             
REMARK            /dls_sw/apps/GPhL/BUSTER/20221121/autoBUSTER/bin/linux64/refin
REMARK            -p \                                                          
REMARK            /dls/labxchem/data/lb32627/lb32627-1/processing/analysis/model
REMARK            -m \                                                          
REMARK            /dls/labxchem/data/lb32627/lb32627-1/processing/analysis/model
REMARK            -l \                                                          
REMARK            /dls/labxchem/data/lb32627/lb32627-1/processing/analysis/model
REMARK            -autoncs -M TLSbasic -d Refine_4                              
REMARK Files used:                                                              
REMARK   PDB              = Refine_4/pdbchk.pdb                                 
REMARK   MTZ              = /dls/labxchem/data/lb32627/lb32627-1/processing/anal
REMARK output written to subdirectory = Refine_4                                
REMARK best refinement for F,SIGF with R/Rfree 0.1885/0.2164                    
REMARK header records are copied from input PDB file (apart from REMARK 3!)     
REMARK --------------------- added by autoBUSTER -------------------------------
REMARK --------------------- added by autoBUSTER -------------------------------
REMARK run at   = Wed Feb  8 14:50:15 GMT 2023                                  
REMARK     in   = /dls/labxchem/data/lb32627/lb32627-1/processing/analysis/model
REMARK     user = dcn76311                                                      
REMARK     cmd  = \                                                             
REMARK            /dls_sw/apps/GPhL/BUSTER/20221121/autoBUSTER/bin/linux64/refin
REMARK            -p \                                                          
REMARK            /dls/labxchem/data/lb32627/lb32627-1/processing/analysis/model
REMARK            -m \                                                          
REMARK            /dls/labxchem/data/lb32627/lb32627-1/processing/analysis/model
REMARK            -l \                                                          
REMARK            /dls/labxchem/data/lb32627/lb32627-1/processing/analysis/model
REMARK            -autoncs -M TLSbasic -d Refine_3                              
REMARK Files used:                                                              
REMARK   PDB              = Refine_3/pdbchk.pdb                                 
REMARK   MTZ              = /dls/labxchem/data/lb32627/lb32627-1/processing/anal
REMARK output written to subdirectory = Refine_3                                
REMARK best refinement for F,SIGF with R/Rfree 0.1872/0.2163                    
REMARK header records are copied from input PDB file (apart from REMARK 3!)     
REMARK --------------------- added by autoBUSTER -------------------------------
REMARK --------------------- added by autoBUSTER -------------------------------
REMARK run at   = Fri Feb  3 09:26:20 GMT 2023                                  
REMARK     in   = /dls/labxchem/data/lb32627/lb32627-1/processing/analysis/model
REMARK     user = dcn76311                                                      
REMARK     cmd  = \                                                             
REMARK            /dls_sw/apps/GPhL/BUSTER/20221121/autoBUSTER/bin/linux64/refin
REMARK            -p \                                                          
REMARK            /dls/labxchem/data/lb32627/lb32627-1/processing/analysis/model
REMARK            -m \                                                          
REMARK            /dls/labxchem/data/lb32627/lb32627-1/processing/analysis/model
REMARK            -l \                                                          
REMARK            /dls/labxchem/data/lb32627/lb32627-1/processing/analysis/model
REMARK            -autoncs -M TLSbasic -d Refine_2                              
REMARK Files used:                                                              
REMARK   PDB              = Refine_2/pdbchk.pdb                                 
REMARK   MTZ              = /dls/labxchem/data/lb32627/lb32627-1/processing/anal
REMARK output written to subdirectory = Refine_2                                
REMARK best refinement for F,SIGF with R/Rfree 0.1901/0.2202                    
REMARK header records are copied from input PDB file (apart from REMARK 3!)     
REMARK --------------------- added by autoBUSTER -------------------------------
REMARK --------------------- added by autoBUSTER -------------------------------
REMARK run at   = Thu Feb  2 10:45:41 GMT 2023                                  
REMARK     in   = /dls/labxchem/data/lb32627/lb32627-1/processing/analysis/model
REMARK     user = dcn76311                                                      
REMARK     cmd  = \                                                             
REMARK            /dls_sw/apps/GPhL/BUSTER/20221121/autoBUSTER/bin/linux64/refin
REMARK            -p \                                                          
REMARK            /dls/labxchem/data/lb32627/lb32627-1/processing/analysis/model
REMARK            -m \                                                          
REMARK            /dls/labxchem/data/lb32627/lb32627-1/processing/analysis/model
REMARK            -l \                                                          
REMARK            /dls/labxchem/data/lb32627/lb32627-1/processing/analysis/model
REMARK            -autoncs -M TLSbasic -d Refine_1                              
REMARK Files used:                                                              
REMARK   PDB              = Refine_1/pdbchk.pdb                                 
REMARK   MTZ              = /dls/labxchem/data/lb32627/lb32627-1/processing/anal
REMARK output written to subdirectory = Refine_1                                
REMARK best refinement for F,SIGF with R/Rfree 0.1916/0.2228                    
REMARK header records are copied from input PDB file (apart from REMARK 3!)     
REMARK --------------------- added by autoBUSTER -------------------------------
REMARK   2                                                            
REMARK   2 RESOLUTION.    1.19 ANGSTROMS.
REMARK   3
REMARK   3 REFINEMENT.
REMARK   3   PROGRAM     : BUSTER 2.10.4 (17-FEB-2023)
REMARK   3   AUTHORS     : BRICOGNE,BLANC,BRANDL,FLENSBURG,KELLER,
REMARK   3               : PACIOREK,ROVERSI,SHARFF,SMART,VONRHEIN,WOMACK;
REMARK   3               : MATTHEWS,TEN EYCK,TRONRUD
REMARK   3
REMARK   3  DATA USED IN REFINEMENT.
REMARK   3   RESOLUTION RANGE HIGH (ANGSTROMS) : 1.185
REMARK   3   RESOLUTION RANGE LOW  (ANGSTROMS) : 16.77
REMARK   3   DATA CUTOFF            (SIGMA(F)) : 0.000
REMARK   3   COMPLETENESS FOR RANGE        (%) : 88.7
REMARK   3   NUMBER OF REFLECTIONS             : 89685
REMARK   3
REMARK   3  FIT TO DATA USED IN REFINEMENT.
REMARK   3   CROSS-VALIDATION METHOD          : THROUGHOUT
REMARK   3   FREE R VALUE TEST SET SELECTION  : RANDOM
REMARK   3   R VALUE     (WORKING + TEST SET) : 0.1861
REMARK   3   R VALUE            (WORKING SET) : 0.1848
REMARK   3   FREE R VALUE                     : 0.2120
REMARK   3   FREE R VALUE TEST SET SIZE   (%) : 5.000
REMARK   3   FREE R VALUE TEST SET COUNT      : 4484
REMARK   3   ESTIMATED ERROR OF FREE R VALUE  : NULL
REMARK   3
REMARK   3  FIT IN THE HIGHEST RESOLUTION BIN.
REMARK   3   TOTAL NUMBER OF BINS USED           : 51
REMARK   3   BIN RESOLUTION RANGE HIGH       (A) : 1.19
REMARK   3   BIN RESOLUTION RANGE LOW        (A) : 1.21
REMARK   3   BIN COMPLETENESS (WORKING+TEST) (%) : 31.38
REMARK   3   REFLECTIONS IN BIN   (WORKING+TEST) : 1794
REMARK   3   BIN R VALUE          (WORKING+TEST) : 0.4077
REMARK   3   REFLECTIONS IN BIN    (WORKING SET) : 1700
REMARK   3   BIN R VALUE           (WORKING SET) : 0.4059
REMARK   3   BIN FREE R VALUE                    : 0.4400
REMARK   3   BIN FREE R VALUE TEST SET SIZE  (%) : 5.24
REMARK   3   BIN FREE R VALUE TEST SET COUNT     : 94
REMARK   3   ESTIMATED ERROR OF BIN FREE R VALUE : NULL
REMARK   3
REMARK   3  NUMBER OF NON-HYDROGEN ATOMS USED IN REFINEMENT.
REMARK   3   PROTEIN ATOMS            : 2519
REMARK   3   NUCLEIC ACID ATOMS       : 0
REMARK   3   HETEROGEN ATOMS          : 24
REMARK   3   SOLVENT ATOMS            : 466
REMARK   3
REMARK   3  B VALUES.
REMARK   3   FROM WILSON PLOT           (A**2) : 13.32
REMARK   3   MEAN B VALUE      (OVERALL, A**2) : 19.39
REMARK   3   OVERALL ANISOTROPIC B VALUE.
REMARK   3    B11 (A**2) : 3.80570
REMARK   3    B22 (A**2) : 3.80570
REMARK   3    B33 (A**2) : -7.61140
REMARK   3    B12 (A**2) : 0.00000
REMARK   3    B13 (A**2) : 0.00000
REMARK   3    B23 (A**2) : 0.00000
REMARK   3
REMARK   3  ESTIMATED COORDINATE ERROR.
REMARK   3   ESD FROM LUZZATI PLOT                    (A) : 0.17
REMARK   3   DPI (BLOW EQ-10) BASED ON R VALUE        (A) : 0.048
REMARK   3   DPI (BLOW EQ-9) BASED ON FREE R VALUE    (A) : 0.051
REMARK   3   DPI (CRUICKSHANK) BASED ON R VALUE       (A) : 0.045
REMARK   3   DPI (CRUICKSHANK) BASED ON FREE R VALUE  (A) : 0.048
REMARK   3
REMARK   3   REFERENCES: BLOW, D. (2002) ACTA CRYST D58, 792-797
REMARK   3               CRUICKSHANK, D.W.J. (1999) ACTA CRYST D55, 583-601
REMARK   3
REMARK   3  CORRELATION COEFFICIENTS.
REMARK   3   CORRELATION COEFFICIENT FO-FC      : 0.952
REMARK   3   CORRELATION COEFFICIENT FO-FC FREE : 0.949
REMARK   3
REMARK   3  X-RAY WEIGHT : 5.72
REMARK   3
REMARK   3  GEOMETRY FUNCTION.                                                  
REMARK   3   RESTRAINT LIBRARIES.                                               
REMARK   3    NUMBER OF LIBRARIES USED :   8                                    
REMARK   3    LIBRARY  1 : protgeo_eh99.dat (V1.6.4.20) 20220523  STANDARD      
REMARK   3                 AMINO ACID DICTIONARY. BONDS AND ANGLES FROM         
REMARK   3                 ENGH AND HUBER EH99. OTHER VALUES BASED ON           
REMARK   3                 PREVIOUS TNT OR TAKEN FROM CCP4. INCLUDES            
REMARK   3                 HYDROGEN ATOMS.                                      
REMARK   3    LIBRARY  2 : exoticaa.dat (V1.3.4.16) 20220523  COLLECTION        
REMARK   3                 OF NON-STANDARD AMINO ACIDS, MAINLY EH91             
REMARK   3                 WITHOUT IDEAL DISTANCE INFO                          
REMARK   3    LIBRARY  3 : nuclgeo.dat (V1.13.4.9) 20221011                     
REMARK   3    LIBRARY  4 : bcorrel.dat (V1.15.10.2) 20190616                    
REMARK   3    LIBRARY  5 : contact.dat (V1.15.12.10) 20191121                   
REMARK   3    LIBRARY  6 : idealdist_contact.dat (V1.3.4.13) 20220125           
REMARK   3                 IDEAL-DISTANCE CONTACT TERM DATA AS USED IN          
REMARK   3                 PROLSQ. VALUES USED HERE ARE BASED ON DATA           
REMARK   3                 HARVESTING OF PDB AS OF 20190109.                    
REMARK   3    LIBRARY  7 : restraints for LIG (unknown) from cif                
REMARK   3                 dictionary ASAP-0000588-001.cif; generated by        
REMARK   3                 GRADE 1.2.21 (Feb 03 2022) from SMILES               
REMARK   3                 O=C(O)C[C@@H](NC(=O)c1ncnc2[nH]ccc12)c1ccc(F)cc1     
REMARK   3                 using MOGUL 1.8.5(274361), CSD as541be, with         
REMARK   3                 quantum mechanics RM1                                
REMARK   3    LIBRARY  8 : assume.dat (V1.9.4.3) 20221011                       
REMARK   3                                                                      
REMARK   3   NUMBER OF GEOMETRIC FUNCTION TERMS DEFINED : 15                    
REMARK   3   TERM                          COUNT    WEIGHT   FUNCTION.          
REMARK   3    BOND LENGTHS              :   2642 ;   2.00 ;  HARMONIC           
REMARK   3    BOND ANGLES               :   3604 ;   2.00 ;  HARMONIC           
REMARK   3    TORSION ANGLES            :    904 ;   2.00 ;  SINUSOIDAL         
REMARK   3    TRIGONAL CARBON PLANES    :   NULL ;   NULL ;  NULL               
REMARK   3    GENERAL PLANES            :    481 ;   5.00 ;  HARMONIC           
REMARK   3    ISOTROPIC THERMAL FACTORS :   2642 ;  10.00 ;  HARMONIC           
REMARK   3    BAD NON-BONDED CONTACTS   :   NULL ;   NULL ;  NULL               
REMARK   3    IMPROPER TORSIONS         :   NULL ;   NULL ;  NULL               
REMARK   3    PSEUDOROTATION ANGLES     :   NULL ;   NULL ;  NULL               
REMARK   3    CHIRAL IMPROPER TORSION   :    340 ;   5.00 ;  SEMIHARMONIC       
REMARK   3    SUM OF OCCUPANCIES        :   NULL ;   NULL ;  NULL               
REMARK   3    UTILITY DISTANCES         :   NULL ;   NULL ;  NULL               
REMARK   3    UTILITY ANGLES            :   NULL ;   NULL ;  NULL               
REMARK   3    UTILITY TORSION           :   NULL ;   NULL ;  NULL               
REMARK   3    IDEAL-DIST CONTACT TERM   :   2732 ;   4.00 ;  SEMIHARMONIC       
REMARK   3                                                                      
REMARK   3   RMS DEVIATIONS FROM IDEAL VALUES.                                  
REMARK   3   BOND LENGTHS                       (A) : 0.013                     
REMARK   3   BOND ANGLES                  (DEGREES) : 1.18                      
REMARK   3   PEPTIDE OMEGA TORSION ANGLES (DEGREES) : 4.93                      
REMARK   3   OTHER TORSION ANGLES         (DEGREES) : 14.92                     
REMARK   3                                                                      
REMARK   3   SIMILARITY.                                                        
REMARK   3    NCS.                                                              
REMARK   3     NCS METHOD: RESTRAINT LSSR (-AUTONCS)                            
REMARK   3    TARGET RESTRAINTS.                                                
REMARK   3     TARGET REPRESENTATION : NONE                                     
REMARK   3     TARGET STRUCTURE : NULL                                          
REMARK   3                                                                      
REMARK   3  TLS DETAILS.                                                        
REMARK   3   NUMBER OF TLS GROUPS  :            2                               
REMARK   3                                                                      
REMARK   3   TLS GROUP :            1                                           
REMARK   3    SET : { A|* }                                                     
REMARK   3    ORIGIN FOR THE GROUP (A):    4.0970   21.4870   -0.4440           
REMARK   3    T TENSOR                                                          
REMARK   3     T11:    0.0042 T22:   -0.0062                                    
REMARK   3     T33:   -0.0175 T12:    0.0043                                    
REMARK   3     T13:   -0.0191 T23:    0.0085                                    
REMARK   3    L TENSOR                                                          
REMARK   3     L11:    0.5944 L22:    1.1438                                    
REMARK   3     L33:    0.0484 L12:   -0.3864                                    
REMARK   3     L13:   -0.0574 L23:    0.0923                                    
REMARK   3    S TENSOR                                                          
REMARK   3     S11:   -0.0223 S12:   -0.0020 S13:   -0.0117                     
REMARK   3     S21:    0.0679 S22:    0.0278 S23:   -0.0608                     
REMARK   3     S31:    0.0143 S32:   -0.0135 S33:   -0.0056                     
REMARK   3                                                                      
REMARK   3   TLS GROUP :            2                                           
REMARK   3    SET : { B|* }                                                     
REMARK   3    ORIGIN FOR THE GROUP (A):   22.4489   43.2351   -7.8436           
REMARK   3    T TENSOR                                                          
REMARK   3     T11:   -0.0218 T22:   -0.0122                                    
REMARK   3     T33:   -0.0009 T12:    0.0092                                    
REMARK   3     T13:   -0.0081 T23:   -0.0062                                    
REMARK   3    L TENSOR                                                          
REMARK   3     L11:    0.9577 L22:    1.1168                                    
REMARK   3     L33:    0.1780 L12:   -0.2007                                    
REMARK   3     L13:   -0.2178 L23:    0.1556                                    
REMARK   3    S TENSOR                                                          
REMARK   3     S11:    0.0519 S12:    0.0045 S13:   -0.0686                     
REMARK   3     S21:   -0.0096 S22:   -0.0627 S23:   -0.1018                     
REMARK   3     S31:   -0.0457 S32:   -0.0255 S33:    0.0108                     
REMARK   3                                                                      
REMARK   3  REFINEMENT NOTES.                                                   
REMARK   3   NUMBER OF REFINEMENT NOTES :   1                                   
REMARK   3   NOTE   1 : IDEAL-DIST CONTACT TERM CONTACT SETUP. ALL ATOMS        
REMARK   3               HAVE CCP4 ATOM TYPE FROM LIBRARY                       
REMARK   3
REMARK   3  OTHER REFINEMENT REMARKS: NULL
REMARK   3
REMARK 290                                                            
REMARK 290 CRYSTALLOGRAPHIC SYMMETRY                                  
REMARK 290 SYMMETRY OPERATORS FOR SPACE GROUP: P 43                   
REMARK 290                                                            
REMARK 290      SYMOP   SYMMETRY                                      
REMARK 290     NNNMMM   OPERATOR                                      
REMARK 290       1555   X,Y,Z                                         
REMARK 290       2555   -X,-Y,1/2+Z                                   
REMARK 290       3555   -Y,X,3/4+Z                                    
REMARK 290       4555   Y,-X,1/4+Z                                    
REMARK 290                                                            
REMARK 290     WHERE NNN -> OPERATOR NUMBER                           
REMARK 290           MMM -> TRANSLATION VECTOR                        
REMARK 290                                                            
REMARK 290 CRYSTALLOGRAPHIC SYMMETRY TRANSFORMATIONS                  
REMARK 290 THE FOLLOWING TRANSFORMATIONS OPERATE ON THE ATOM/HETATM   
REMARK 290 RECORDS IN THIS ENTRY TO PRODUCE CRYSTALLOGRAPHICALLY      
REMARK 290 RELATED MOLECULES.                                         
REMARK 290   SMTRY1   1  1.000000  0.000000  0.000000        0.00000
REMARK 290   SMTRY2   1  0.000000  1.000000  0.000000        0.00000
REMARK 290   SMTRY3   1  0.000000  0.000000  1.000000        0.00000
REMARK 290   SMTRY1   2 -1.000000  0.000000  0.000000        0.00000
REMARK 290   SMTRY2   2  0.000000 -1.000000  0.000000        0.00000
REMARK 290   SMTRY3   2  0.000000  0.000000  1.000000       19.80150
REMARK 290   SMTRY1   3  0.000000 -1.000000  0.000000        0.00000
REMARK 290   SMTRY2   3  1.000000  0.000000  0.000000        0.00000
REMARK 290   SMTRY3   3  0.000000  0.000000  1.000000       29.70225
REMARK 290   SMTRY1   4  0.000000  1.000000  0.000000        0.00000
REMARK 290   SMTRY2   4 -1.000000  0.000000  0.000000        0.00000
REMARK 290   SMTRY3   4  0.000000  0.000000  1.000000        9.90075
REMARK 290                                                            
REMARK 290 REMARK: NULL                                               
REMARK 300
REMARK 300 BIOMOLECULE: 1, 2
REMARK 300 SEE REMARK 350 FOR THE AUTHOR PROVIDED AND/OR PROGRAM
REMARK 300 GENERATED ASSEMBLY INFORMATION FOR THE STRUCTURE IN
REMARK 300 THIS ENTRY. THE REMARK MAY ALSO  PROVIDE INFORMATION ON
REMARK 300 BURIED SURFACE AREA.
REMARK 350
REMARK 350 COORDINATES FOR A COMPLETE MULTIMER REPRESENTING THE KNOWN
REMARK 350 BIOLOGICALLY SIGNIFICANT OLIGOMERIZATION STATE OF THE
REMARK 350 MOLECULE CAN BE GENERATED BY APPLYING BIOMT TRANSFORMATIONS
REMARK 350 GIVEN BELOW. BOTH NON-CRYSTALLOGRAPHIC AND
REMARK 350 CRYSTALLOGRAPHIC OPERATIONS ARE GIVEN.
REMARK 350
REMARK 350 BIOMOLECULE: 1
REMARK 350 SOFTWARE DETERMINED QUATERNARY STRUCTURE: MONOMERIC
REMARK 350 SOFTWARE USED: PISA
REMARK 350 SURFACE AREA OF THE MONOMER: 7779 ANGSTROM**2
REMARK 350 FREE ENERGY OF FOLDING: -153.4 KCAL/MOL
REMARK 350 APPLY THE FOLLOWING TO CHAINS: A,W
REMARK 350   BIOMT1   1  1.000000  0.000000  0.000000        0.00000
REMARK 350   BIOMT2   1  0.000000  1.000000  0.000000        0.00000
REMARK 350   BIOMT3   1  0.000000  0.000000  1.000000        0.00000
REMARK 350
REMARK 350 BIOMOLECULE: 2
REMARK 350 SOFTWARE DETERMINED QUATERNARY STRUCTURE: MONOMERIC
REMARK 350 SOFTWARE USED: PISA
REMARK 350 SURFACE AREA OF THE MONOMER: 8112 ANGSTROM**2
REMARK 350 FREE ENERGY OF FOLDING: -155.9 KCAL/MOL
REMARK 350 APPLY THE FOLLOWING TO CHAINS: B,W
REMARK 350   BIOMT1   1  1.000000  0.000000  0.000000        0.00000
REMARK 350   BIOMT2   1  0.000000  1.000000  0.000000        0.00000
REMARK 350   BIOMT3   1  0.000000  0.000000  1.000000        0.00000
CRYST1   89.116   89.116   39.603  90.00  90.00  90.00 P 43                     


$$$$
SARS2_Mac1A-A0776
  PyMOL3.0          3D                             0

 24 25  0  0  0  0  0  0  0  0999 V2000
   -4.9230   15.6400    0.5450 N   0  0  0  0  0  0  0  0  0  0  0  0
   -6.2330   15.0340    0.7270 C   0  0  0  0  0  0  0  0  0  0  0  0
   -2.2470   14.4950   -5.0950 O   0  0  0  0  0  0  0  0  0  0  0  0
   -4.2700   15.8240    1.8340 C   0  0  0  0  0  0  0  0  0  0  0  0
   -0.7220   13.6620   -3.6890 N   0  0  0  0  0  0  0  0  0  0  0  0
    0.8010   11.0440   -2.6440 O   0  0  0  0  0  0  0  0  0  0  0  0
   -4.1790   15.3390   -0.5900 C   0  0  0  0  0  0  0  0  0  0  0  0
   -2.0580   14.8030   -1.5760 N   0  0  0  0  0  0  0  0  0  0  0  0
    1.5580   12.8730   -1.8120 O   0  0  0  0  0  0  0  0  0  0  0  0
   -4.7430   15.3650   -1.8490 C   0  0  0  0  0  0  0  0  0  0  0  0
   -3.9700   15.1200   -2.9640 C   0  0  0  0  0  0  0  0  0  0  0  0
   -2.6370   14.8220   -2.7820 C   0  0  0  0  0  0  0  0  0  0  0  0
   -1.8350   14.3540   -3.9620 C   0  0  0  0  0  0  0  0  0  0  0  0
    0.1460   13.1380   -4.7450 C   0  0  0  0  0  0  0  0  0  0  0  0
    1.5210   12.8210   -4.1250 C   0  0  0  0  0  0  0  0  0  0  0  0
    1.3260   12.1350   -2.7890 C   0  0  0  0  0  0  0  0  0  0  0  0
   -0.4000   11.8880   -5.4040 C   0  0  0  0  0  0  0  0  0  0  0  0
   -1.5010   11.1920   -4.9100 C   0  0  0  0  0  0  0  0  0  0  0  0
   -1.9290   10.0180   -5.5080 C   0  0  0  0  0  0  0  0  0  0  0  0
   -1.2520    9.5460   -6.6150 C   0  0  0  0  0  0  0  0  0  0  0  0
   -0.1650   10.2140   -7.1210 C   0  0  0  0  0  0  0  0  0  0  0  0
    0.2560   11.3780   -6.5100 C   0  0  0  0  0  0  0  0  0  0  0  0
   -2.8260   15.0520   -0.5020 C   0  0  0  0  0  0  0  0  0  0  0  0
   -1.8180    7.9450   -7.4600 Br  0  0  0  0  0  0  0  0  0  0  0  0
  1  2  1  0  0  0  0
  1  4  1  0  0  0  0
  5 13  1  0  0  0  0
  1  7  1  0  0  0  0
  8 23  4  0  0  0  0
  7 10  4  0  0  0  0
 10 11  4  0  0  0  0
  8 12  4  0  0  0  0
 11 12  4  0  0  0  0
  3 13  2  0  0  0  0
 12 13  1  0  0  0  0
  5 14  1  0  0  0  0
 14 15  1  0  0  0  0
 15 16  1  0  0  0  0
  6 16  4  0  0  0  0
  9 16  4  0  0  0  0
 14 17  1  0  0  0  0
 17 18  4  0  0  0  0
 18 19  4  0  0  0  0
 19 20  4  0  0  0  0
 20 21  4  0  0  0  0
 21 22  4  0  0  0  0
 17 22  4  0  0  0  0
  7 23  4  0  0  0  0
 20 24  1  0  0  0  0
M  END
>  <pdb_header>
HEADER    ----                                    18-MAY-20                     
TITLE     ---                                                                   
EXPDTA    X-RAY DIFFRACTION                                                     
REMARK --------------------- added by autoBUSTER ---------------------------------START
REMARK run at   = Tue Feb 14 10:24:39 GMT 2023
REMARK     in   = /dls/labxchem/data/lb32627/lb32627-1/processing/analysis/model_building/SARS2_Mac1A-A0776
REMARK     user = dcn76311
REMARK     cmd  = \
REMARK            /dls_sw/apps/GPhL/BUSTER/20221121/autoBUSTER/bin/linux64/refine \
REMARK            -p \
REMARK            /dls/labxchem/data/lb32627/lb32627-1/processing/analysis/model_building/SARS2_Mac1A-A0776/cootOut/Refi
REMARK            -m \
REMARK            /dls/labxchem/data/lb32627/lb32627-1/processing/analysis/model_building/SARS2_Mac1A-A0776/SARS2_Mac1A-
REMARK            -l \
REMARK            /dls/labxchem/data/lb32627/lb32627-1/processing/analysis/model_building/SARS2_Mac1A-A0776/ASAP-0000601
REMARK            -autoncs -M TLSbasic -d Refine_9
REMARK Files used:
REMARK   PDB              = Refine_9/pdbchk.pdb
REMARK   MTZ              = /dls/labxchem/data/lb32627/lb32627-1/processing/analysis/model_building/SARS2_Mac1A-A0776/SA
REMARK output written to subdirectory = Refine_9
REMARK best refinement for F,SIGF with R/Rfree 0.1760/0.1995
REMARK header records are copied from input PDB file (apart from REMARK 3!)
REMARK --------------------- added by autoBUSTER -----------------------------------END
REMARK --------------------- added by autoBUSTER -------------------------------
REMARK run at   = Tue Feb 14 08:36:20 GMT 2023                                  
REMARK     in   = /dls/labxchem/data/lb32627/lb32627-1/processing/analysis/model
REMARK     user = dcn76311                                                      
REMARK     cmd  = \                                                             
REMARK            /dls_sw/apps/GPhL/BUSTER/20221121/autoBUSTER/bin/linux64/refin
REMARK            -p \                                                          
REMARK            /dls/labxchem/data/lb32627/lb32627-1/processing/analysis/model
REMARK            -m \                                                          
REMARK            /dls/labxchem/data/lb32627/lb32627-1/processing/analysis/model
REMARK            -l \                                                          
REMARK            /dls/labxchem/data/lb32627/lb32627-1/processing/analysis/model
REMARK            -autoncs -M TLSbasic -d Refine_8                              
REMARK Files used:                                                              
REMARK   PDB              = Refine_8/pdbchk.pdb                                 
REMARK   MTZ              = /dls/labxchem/data/lb32627/lb32627-1/processing/anal
REMARK output written to subdirectory = Refine_8                                
REMARK best refinement for F,SIGF with R/Rfree 0.1765/0.1986                    
REMARK header records are copied from input PDB file (apart from REMARK 3!)     
REMARK --------------------- added by autoBUSTER -------------------------------
REMARK --------------------- added by autoBUSTER -------------------------------
REMARK run at   = Tue Feb 14 08:09:05 GMT 2023                                  
REMARK     in   = /dls/labxchem/data/lb32627/lb32627-1/processing/analysis/model
REMARK     user = dcn76311                                                      
REMARK     cmd  = \                                                             
REMARK            /dls_sw/apps/GPhL/BUSTER/20221121/autoBUSTER/bin/linux64/refin
REMARK            -p \                                                          
REMARK            /dls/labxchem/data/lb32627/lb32627-1/processing/analysis/model
REMARK            -m \                                                          
REMARK            /dls/labxchem/data/lb32627/lb32627-1/processing/analysis/model
REMARK            -l \                                                          
REMARK            /dls/labxchem/data/lb32627/lb32627-1/processing/analysis/model
REMARK            -autoncs -M TLSbasic -d Refine_7                              
REMARK Files used:                                                              
REMARK   PDB              = Refine_7/pdbchk.pdb                                 
REMARK   MTZ              = /dls/labxchem/data/lb32627/lb32627-1/processing/anal
REMARK output written to subdirectory = Refine_7                                
REMARK best refinement for F,SIGF with R/Rfree 0.1767/0.1986                    
REMARK header records are copied from input PDB file (apart from REMARK 3!)     
REMARK --------------------- added by autoBUSTER -------------------------------
REMARK --------------------- added by autoBUSTER -------------------------------
REMARK run at   = Mon Feb 13 14:37:24 GMT 2023                                  
REMARK     in   = /dls/labxchem/data/lb32627/lb32627-1/processing/analysis/model
REMARK     user = dcn76311                                                      
REMARK     cmd  = \                                                             
REMARK            /dls_sw/apps/GPhL/BUSTER/20221121/autoBUSTER/bin/linux64/refin
REMARK            -p \                                                          
REMARK            /dls/labxchem/data/lb32627/lb32627-1/processing/analysis/model
REMARK            -m \                                                          
REMARK            /dls/labxchem/data/lb32627/lb32627-1/processing/analysis/model
REMARK            -l \                                                          
REMARK            /dls/labxchem/data/lb32627/lb32627-1/processing/analysis/model
REMARK            -autoncs -M TLSbasic -d Refine_6                              
REMARK Files used:                                                              
REMARK   PDB              = Refine_6/pdbchk.pdb                                 
REMARK   MTZ              = /dls/labxchem/data/lb32627/lb32627-1/processing/anal
REMARK output written to subdirectory = Refine_6                                
REMARK best refinement for F,SIGF with R/Rfree 0.1765/0.1982                    
REMARK header records are copied from input PDB file (apart from REMARK 3!)     
REMARK --------------------- added by autoBUSTER -------------------------------
REMARK --------------------- added by autoBUSTER -------------------------------
REMARK run at   = Fri Feb 10 14:48:14 GMT 2023                                  
REMARK     in   = /dls/labxchem/data/lb32627/lb32627-1/processing/analysis/model
REMARK     user = dcn76311                                                      
REMARK     cmd  = \                                                             
REMARK            /dls_sw/apps/GPhL/BUSTER/20221121/autoBUSTER/bin/linux64/refin
REMARK            -p \                                                          
REMARK            /dls/labxchem/data/lb32627/lb32627-1/processing/analysis/model
REMARK            -m \                                                          
REMARK            /dls/labxchem/data/lb32627/lb32627-1/processing/analysis/model
REMARK            -l \                                                          
REMARK            /dls/labxchem/data/lb32627/lb32627-1/processing/analysis/model
REMARK            -autoncs -M TLSbasic -d Refine_5                              
REMARK Files used:                                                              
REMARK   PDB              = Refine_5/pdbchk.pdb                                 
REMARK   MTZ              = /dls/labxchem/data/lb32627/lb32627-1/processing/anal
REMARK output written to subdirectory = Refine_5                                
REMARK best refinement for F,SIGF with R/Rfree 0.1768/0.2005                    
REMARK header records are copied from input PDB file (apart from REMARK 3!)     
REMARK --------------------- added by autoBUSTER -------------------------------
REMARK --------------------- added by autoBUSTER -------------------------------
REMARK run at   = Fri Feb 10 14:15:38 GMT 2023                                  
REMARK     in   = /dls/labxchem/data/lb32627/lb32627-1/processing/analysis/model
REMARK     user = dcn76311                                                      
REMARK     cmd  = \                                                             
REMARK            /dls_sw/apps/GPhL/BUSTER/20221121/autoBUSTER/bin/linux64/refin
REMARK            -p \                                                          
REMARK            /dls/labxchem/data/lb32627/lb32627-1/processing/analysis/model
REMARK            -m \                                                          
REMARK            /dls/labxchem/data/lb32627/lb32627-1/processing/analysis/model
REMARK            -l \                                                          
REMARK            /dls/labxchem/data/lb32627/lb32627-1/processing/analysis/model
REMARK            -autoncs -M TLSbasic -d Refine_4                              
REMARK Files used:                                                              
REMARK   PDB              = Refine_4/pdbchk.pdb                                 
REMARK   MTZ              = /dls/labxchem/data/lb32627/lb32627-1/processing/anal
REMARK output written to subdirectory = Refine_4                                
REMARK best refinement for F,SIGF with R/Rfree 0.1772/0.1990                    
REMARK header records are copied from input PDB file (apart from REMARK 3!)     
REMARK --------------------- added by autoBUSTER -------------------------------
REMARK --------------------- added by autoBUSTER -------------------------------
REMARK run at   = Thu Feb  9 13:47:24 GMT 2023                                  
REMARK     in   = /dls/labxchem/data/lb32627/lb32627-1/processing/analysis/model
REMARK     user = dcn76311                                                      
REMARK     cmd  = \                                                             
REMARK            /dls_sw/apps/GPhL/BUSTER/20221121/autoBUSTER/bin/linux64/refin
REMARK            -p \                                                          
REMARK            /dls/labxchem/data/lb32627/lb32627-1/processing/analysis/model
REMARK            -m \                                                          
REMARK            /dls/labxchem/data/lb32627/lb32627-1/processing/analysis/model
REMARK            -l \                                                          
REMARK            /dls/labxchem/data/lb32627/lb32627-1/processing/analysis/model
REMARK            -autoncs -M TLSbasic -d Refine_3                              
REMARK Files used:                                                              
REMARK   PDB              = Refine_3/pdbchk.pdb                                 
REMARK   MTZ              = /dls/labxchem/data/lb32627/lb32627-1/processing/anal
REMARK output written to subdirectory = Refine_3                                
REMARK best refinement for F,SIGF with R/Rfree 0.1785/0.2024                    
REMARK header records are copied from input PDB file (apart from REMARK 3!)     
REMARK --------------------- added by autoBUSTER -------------------------------
REMARK --------------------- added by autoBUSTER -------------------------------
REMARK run at   = Tue Feb  7 14:47:51 GMT 2023                                  
REMARK     in   = /dls/labxchem/data/lb32627/lb32627-1/processing/analysis/model
REMARK     user = dcn76311                                                      
REMARK     cmd  = \                                                             
REMARK            /dls_sw/apps/GPhL/BUSTER/20221121/autoBUSTER/bin/linux64/refin
REMARK            -p \                                                          
REMARK            /dls/labxchem/data/lb32627/lb32627-1/processing/analysis/model
REMARK            -m \                                                          
REMARK            /dls/labxchem/data/lb32627/lb32627-1/processing/analysis/model
REMARK            -l \                                                          
REMARK            /dls/labxchem/data/lb32627/lb32627-1/processing/analysis/model
REMARK            -autoncs -M TLSbasic -d Refine_2                              
REMARK Files used:                                                              
REMARK   PDB              = Refine_2/pdbchk.pdb                                 
REMARK   MTZ              = /dls/labxchem/data/lb32627/lb32627-1/processing/anal
REMARK output written to subdirectory = Refine_2                                
REMARK best refinement for F,SIGF with R/Rfree 0.1784/0.2012                    
REMARK header records are copied from input PDB file (apart from REMARK 3!)     
REMARK --------------------- added by autoBUSTER -------------------------------
REMARK --------------------- added by autoBUSTER -------------------------------
REMARK run at   = Thu Feb  2 10:45:52 GMT 2023                                  
REMARK     in   = /dls/labxchem/data/lb32627/lb32627-1/processing/analysis/model
REMARK     user = dcn76311                                                      
REMARK     cmd  = \                                                             
REMARK            /dls_sw/apps/GPhL/BUSTER/20221121/autoBUSTER/bin/linux64/refin
REMARK            -p \                                                          
REMARK            /dls/labxchem/data/lb32627/lb32627-1/processing/analysis/model
REMARK            -m \                                                          
REMARK            /dls/labxchem/data/lb32627/lb32627-1/processing/analysis/model
REMARK            -l \                                                          
REMARK            /dls/labxchem/data/lb32627/lb32627-1/processing/analysis/model
REMARK            -autoncs -M TLSbasic -d Refine_1                              
REMARK Files used:                                                              
REMARK   PDB              = Refine_1/pdbchk.pdb                                 
REMARK   MTZ              = /dls/labxchem/data/lb32627/lb32627-1/processing/anal
REMARK output written to subdirectory = Refine_1                                
REMARK best refinement for F,SIGF with R/Rfree 0.1805/0.2026                    
REMARK header records are copied from input PDB file (apart from REMARK 3!)     
REMARK --------------------- added by autoBUSTER -------------------------------
REMARK   2                                                            
REMARK   2 RESOLUTION.    1.14 ANGSTROMS.
REMARK   3
REMARK   3 REFINEMENT.
REMARK   3   PROGRAM     : BUSTER 2.10.4 (21-NOV-2022)
REMARK   3   AUTHORS     : BRICOGNE,BLANC,BRANDL,FLENSBURG,KELLER,
REMARK   3               : PACIOREK,ROVERSI,SHARFF,SMART,VONRHEIN,WOMACK;
REMARK   3               : MATTHEWS,TEN EYCK,TRONRUD
REMARK   3
REMARK   3  DATA USED IN REFINEMENT.
REMARK   3   RESOLUTION RANGE HIGH (ANGSTROMS) : 1.144
REMARK   3   RESOLUTION RANGE LOW  (ANGSTROMS) : 16.53
REMARK   3   DATA CUTOFF            (SIGMA(F)) : 0.000
REMARK   3   COMPLETENESS FOR RANGE        (%) : 82.9
REMARK   3   NUMBER OF REFLECTIONS             : 93044
REMARK   3
REMARK   3  FIT TO DATA USED IN REFINEMENT.
REMARK   3   CROSS-VALIDATION METHOD          : THROUGHOUT
REMARK   3   FREE R VALUE TEST SET SELECTION  : RANDOM
REMARK   3   R VALUE     (WORKING + TEST SET) : 0.1772
REMARK   3   R VALUE            (WORKING SET) : 0.1760
REMARK   3   FREE R VALUE                     : 0.1995
REMARK   3   FREE R VALUE TEST SET SIZE   (%) : 4.960
REMARK   3   FREE R VALUE TEST SET COUNT      : 4616
REMARK   3   ESTIMATED ERROR OF FREE R VALUE  : NULL
REMARK   3
REMARK   3  FIT IN THE HIGHEST RESOLUTION BIN.
REMARK   3   TOTAL NUMBER OF BINS USED           : 51
REMARK   3   BIN RESOLUTION RANGE HIGH       (A) : 1.14
REMARK   3   BIN RESOLUTION RANGE LOW        (A) : 1.19
REMARK   3   BIN COMPLETENESS (WORKING+TEST) (%) : 16.25
REMARK   3   REFLECTIONS IN BIN   (WORKING+TEST) : 1861
REMARK   3   BIN R VALUE          (WORKING+TEST) : 0.3941
REMARK   3   REFLECTIONS IN BIN    (WORKING SET) : 1778
REMARK   3   BIN R VALUE           (WORKING SET) : 0.3916
REMARK   3   BIN FREE R VALUE                    : 0.4483
REMARK   3   BIN FREE R VALUE TEST SET SIZE  (%) : 4.46
REMARK   3   BIN FREE R VALUE TEST SET COUNT     : 83
REMARK   3   ESTIMATED ERROR OF BIN FREE R VALUE : NULL
REMARK   3
REMARK   3  NUMBER OF NON-HYDROGEN ATOMS USED IN REFINEMENT.
REMARK   3   PROTEIN ATOMS            : 2519
REMARK   3   NUCLEIC ACID ATOMS       : 0
REMARK   3   HETEROGEN ATOMS          : 24
REMARK   3   SOLVENT ATOMS            : 457
REMARK   3
REMARK   3  B VALUES.
REMARK   3   FROM WILSON PLOT           (A**2) : 14.41
REMARK   3   MEAN B VALUE      (OVERALL, A**2) : 21.29
REMARK   3   OVERALL ANISOTROPIC B VALUE.
REMARK   3    B11 (A**2) : 3.31220
REMARK   3    B22 (A**2) : 3.31220
REMARK   3    B33 (A**2) : -6.62450
REMARK   3    B12 (A**2) : 0.00000
REMARK   3    B13 (A**2) : 0.00000
REMARK   3    B23 (A**2) : 0.00000
REMARK   3
REMARK   3  ESTIMATED COORDINATE ERROR.
REMARK   3   ESD FROM LUZZATI PLOT                    (A) : 0.16
REMARK   3   DPI (BLOW EQ-10) BASED ON R VALUE        (A) : 0.045
REMARK   3   DPI (BLOW EQ-9) BASED ON FREE R VALUE    (A) : 0.046
REMARK   3   DPI (CRUICKSHANK) BASED ON R VALUE       (A) : 0.042
REMARK   3   DPI (CRUICKSHANK) BASED ON FREE R VALUE  (A) : 0.044
REMARK   3
REMARK   3   REFERENCES: BLOW, D. (2002) ACTA CRYST D58, 792-797
REMARK   3               CRUICKSHANK, D.W.J. (1999) ACTA CRYST D55, 583-601
REMARK   3
REMARK   3  CORRELATION COEFFICIENTS.
REMARK   3   CORRELATION COEFFICIENT FO-FC      : 0.961
REMARK   3   CORRELATION COEFFICIENT FO-FC FREE : 0.957
REMARK   3
REMARK   3  X-RAY WEIGHT : 6.16
REMARK   3
REMARK   3  GEOMETRY FUNCTION.                                                  
REMARK   3   RESTRAINT LIBRARIES.                                               
REMARK   3    NUMBER OF LIBRARIES USED :   8                                    
REMARK   3    LIBRARY  1 : protgeo_eh99.dat (V1.6.4.20) 20220523  STANDARD      
REMARK   3                 AMINO ACID DICTIONARY. BONDS AND ANGLES FROM         
REMARK   3                 ENGH AND HUBER EH99. OTHER VALUES BASED ON           
REMARK   3                 PREVIOUS TNT OR TAKEN FROM CCP4. INCLUDES            
REMARK   3                 HYDROGEN ATOMS.                                      
REMARK   3    LIBRARY  2 : exoticaa.dat (V1.3.4.16) 20220523  COLLECTION        
REMARK   3                 OF NON-STANDARD AMINO ACIDS, MAINLY EH91             
REMARK   3                 WITHOUT IDEAL DISTANCE INFO                          
REMARK   3    LIBRARY  3 : nuclgeo.dat (V1.13.4.9) 20221011                     
REMARK   3    LIBRARY  4 : bcorrel.dat (V1.15.10.2) 20190616                    
REMARK   3    LIBRARY  5 : contact.dat (V1.15.12.10) 20191121                   
REMARK   3    LIBRARY  6 : idealdist_contact.dat (V1.3.4.13) 20220125           
REMARK   3                 IDEAL-DISTANCE CONTACT TERM DATA AS USED IN          
REMARK   3                 PROLSQ. VALUES USED HERE ARE BASED ON DATA           
REMARK   3                 HARVESTING OF PDB AS OF 20190109.                    
REMARK   3    LIBRARY  7 : restraints for LIG (unknown) from cif                
REMARK   3                 dictionary ASAP-0000601-001.cif; generated by        
REMARK   3                 GRADE 1.2.21 (Feb 03 2022) from SMILES               
REMARK   3                 CN(C)c1ccc(C(=O)N[C@@H](CC(=O)O)c2ccc(Br)cc2)nc1     
REMARK   3                 using MOGUL 1.8.5(274361), CSD as541be, with         
REMARK   3                 quantum mechanics RM1                                
REMARK   3    LIBRARY  8 : assume.dat (V1.9.4.3) 20221011                       
REMARK   3                                                                      
REMARK   3   NUMBER OF GEOMETRIC FUNCTION TERMS DEFINED : 15                    
REMARK   3   TERM                          COUNT    WEIGHT   FUNCTION.          
REMARK   3    BOND LENGTHS              :   2665 ;   2.00 ;  HARMONIC           
REMARK   3    BOND ANGLES               :   3639 ;   2.00 ;  HARMONIC           
REMARK   3    TORSION ANGLES            :    918 ;   2.00 ;  SINUSOIDAL         
REMARK   3    TRIGONAL CARBON PLANES    :   NULL ;   NULL ;  NULL               
REMARK   3    GENERAL PLANES            :    483 ;   5.00 ;  HARMONIC           
REMARK   3    ISOTROPIC THERMAL FACTORS :   2665 ;  10.00 ;  HARMONIC           
REMARK   3    BAD NON-BONDED CONTACTS   :   NULL ;   NULL ;  NULL               
REMARK   3    IMPROPER TORSIONS         :   NULL ;   NULL ;  NULL               
REMARK   3    PSEUDOROTATION ANGLES     :   NULL ;   NULL ;  NULL               
REMARK   3    CHIRAL IMPROPER TORSION   :    343 ;   5.00 ;  SEMIHARMONIC       
REMARK   3    SUM OF OCCUPANCIES        :   NULL ;   NULL ;  NULL               
REMARK   3    UTILITY DISTANCES         :   NULL ;   NULL ;  NULL               
REMARK   3    UTILITY ANGLES            :   NULL ;   NULL ;  NULL               
REMARK   3    UTILITY TORSION           :   NULL ;   NULL ;  NULL               
REMARK   3    IDEAL-DIST CONTACT TERM   :   2884 ;   4.00 ;  SEMIHARMONIC       
REMARK   3                                                                      
REMARK   3   RMS DEVIATIONS FROM IDEAL VALUES.                                  
REMARK   3   BOND LENGTHS                       (A) : 0.014                     
REMARK   3   BOND ANGLES                  (DEGREES) : 1.24                      
REMARK   3   PEPTIDE OMEGA TORSION ANGLES (DEGREES) : 5.14                      
REMARK   3   OTHER TORSION ANGLES         (DEGREES) : 14.30                     
REMARK   3                                                                      
REMARK   3   SIMILARITY.                                                        
REMARK   3    NCS.                                                              
REMARK   3     NCS METHOD: RESTRAINT LSSR (-AUTONCS)                            
REMARK   3    TARGET RESTRAINTS.                                                
REMARK   3     TARGET REPRESENTATION : NONE                                     
REMARK   3     TARGET STRUCTURE : NULL                                          
REMARK   3                                                                      
REMARK   3  TLS DETAILS.                                                        
REMARK   3   NUMBER OF TLS GROUPS  :            2                               
REMARK   3                                                                      
REMARK   3   TLS GROUP :            1                                           
REMARK   3    SET : { A|* }                                                     
REMARK   3    ORIGIN FOR THE GROUP (A):    4.4009   21.2966   -0.4945           
REMARK   3    T TENSOR                                                          
REMARK   3     T11:   -0.0024 T22:   -0.0132                                    
REMARK   3     T33:   -0.0124 T12:    0.0006                                    
REMARK   3     T13:   -0.0178 T23:    0.0076                                    
REMARK   3    L TENSOR                                                          
REMARK   3     L11:    0.8981 L22:    0.8795                                    
REMARK   3     L33:    0.0705 L12:   -0.3602                                    
REMARK   3     L13:    0.0642 L23:   -0.0017                                    
REMARK   3    S TENSOR                                                          
REMARK   3     S11:    0.0099 S12:   -0.0148 S13:   -0.0394                     
REMARK   3     S21:    0.0306 S22:    0.0048 S23:   -0.0308                     
REMARK   3     S31:    0.0171 S32:   -0.0137 S33:   -0.0147                     
REMARK   3                                                                      
REMARK   3   TLS GROUP :            2                                           
REMARK   3    SET : { B|* }                                                     
REMARK   3    ORIGIN FOR THE GROUP (A):   22.4208   43.2782   -7.8558           
REMARK   3    T TENSOR                                                          
REMARK   3     T11:   -0.0287 T22:   -0.0149                                    
REMARK   3     T33:    0.0085 T12:    0.0071                                    
REMARK   3     T13:   -0.0057 T23:   -0.0013                                    
REMARK   3    L TENSOR                                                          
REMARK   3     L11:    0.8226 L22:    0.9160                                    
REMARK   3     L33:    0.2196 L12:   -0.1576                                    
REMARK   3     L13:   -0.1688 L23:    0.1655                                    
REMARK   3    S TENSOR                                                          
REMARK   3     S11:    0.0436 S12:   -0.0025 S13:   -0.0465                     
REMARK   3     S21:    0.0017 S22:   -0.0498 S23:   -0.0922                     
REMARK   3     S31:   -0.0375 S32:   -0.0140 S33:    0.0063                     
REMARK   3                                                                      
REMARK   3  REFINEMENT NOTES.                                                   
REMARK   3   NUMBER OF REFINEMENT NOTES :   1                                   
REMARK   3   NOTE   1 : IDEAL-DIST CONTACT TERM CONTACT SETUP. ALL ATOMS        
REMARK   3               HAVE CCP4 ATOM TYPE FROM LIBRARY                       
REMARK   3
REMARK   3  OTHER REFINEMENT REMARKS: NULL
REMARK   3
REMARK 290                                                            
REMARK 290 CRYSTALLOGRAPHIC SYMMETRY                                  
REMARK 290 SYMMETRY OPERATORS FOR SPACE GROUP: P 43                   
REMARK 290                                                            
REMARK 290      SYMOP   SYMMETRY                                      
REMARK 290     NNNMMM   OPERATOR                                      
REMARK 290       1555   X,Y,Z                                         
REMARK 290       2555   -X,-Y,1/2+Z                                   
REMARK 290       3555   -Y,X,3/4+Z                                    
REMARK 290       4555   Y,-X,1/4+Z                                    
REMARK 290                                                            
REMARK 290     WHERE NNN -> OPERATOR NUMBER                           
REMARK 290           MMM -> TRANSLATION VECTOR                        
REMARK 290                                                            
REMARK 290 CRYSTALLOGRAPHIC SYMMETRY TRANSFORMATIONS                  
REMARK 290 THE FOLLOWING TRANSFORMATIONS OPERATE ON THE ATOM/HETATM   
REMARK 290 RECORDS IN THIS ENTRY TO PRODUCE CRYSTALLOGRAPHICALLY      
REMARK 290 RELATED MOLECULES.                                         
REMARK 290   SMTRY1   1  1.000000  0.000000  0.000000        0.00000
REMARK 290   SMTRY2   1  0.000000  1.000000  0.000000        0.00000
REMARK 290   SMTRY3   1  0.000000  0.000000  1.000000        0.00000
REMARK 290   SMTRY1   2 -1.000000  0.000000  0.000000        0.00000
REMARK 290   SMTRY2   2  0.000000 -1.000000  0.000000        0.00000
REMARK 290   SMTRY3   2  0.000000  0.000000  1.000000       19.83800
REMARK 290   SMTRY1   3  0.000000 -1.000000  0.000000        0.00000
REMARK 290   SMTRY2   3  1.000000  0.000000  0.000000        0.00000
REMARK 290   SMTRY3   3  0.000000  0.000000  1.000000       29.75700
REMARK 290   SMTRY1   4  0.000000  1.000000  0.000000        0.00000
REMARK 290   SMTRY2   4 -1.000000  0.000000  0.000000        0.00000
REMARK 290   SMTRY3   4  0.000000  0.000000  1.000000        9.91900
REMARK 290                                                            
REMARK 290 REMARK: NULL                                               
REMARK 300
REMARK 300 BIOMOLECULE: 1, 2
REMARK 300 SEE REMARK 350 FOR THE AUTHOR PROVIDED AND/OR PROGRAM
REMARK 300 GENERATED ASSEMBLY INFORMATION FOR THE STRUCTURE IN
REMARK 300 THIS ENTRY. THE REMARK MAY ALSO  PROVIDE INFORMATION ON
REMARK 300 BURIED SURFACE AREA.
REMARK 350
REMARK 350 COORDINATES FOR A COMPLETE MULTIMER REPRESENTING THE KNOWN
REMARK 350 BIOLOGICALLY SIGNIFICANT OLIGOMERIZATION STATE OF THE
REMARK 350 MOLECULE CAN BE GENERATED BY APPLYING BIOMT TRANSFORMATIONS
REMARK 350 GIVEN BELOW. BOTH NON-CRYSTALLOGRAPHIC AND
REMARK 350 CRYSTALLOGRAPHIC OPERATIONS ARE GIVEN.
REMARK 350
REMARK 350 BIOMOLECULE: 1
REMARK 350 SOFTWARE DETERMINED QUATERNARY STRUCTURE: MONOMERIC
REMARK 350 SOFTWARE USED: PISA
REMARK 350 SURFACE AREA OF THE MONOMER: 7853 ANGSTROM**2
REMARK 350 FREE ENERGY OF FOLDING: -155.5 KCAL/MOL
REMARK 350 APPLY THE FOLLOWING TO CHAINS: A,W
REMARK 350   BIOMT1   1  1.000000  0.000000  0.000000        0.00000
REMARK 350   BIOMT2   1  0.000000  1.000000  0.000000        0.00000
REMARK 350   BIOMT3   1  0.000000  0.000000  1.000000        0.00000
REMARK 350
REMARK 350 BIOMOLECULE: 2
REMARK 350 SOFTWARE DETERMINED QUATERNARY STRUCTURE: MONOMERIC
REMARK 350 SOFTWARE USED: PISA
REMARK 350 SURFACE AREA OF THE MONOMER: 8083 ANGSTROM**2
REMARK 350 FREE ENERGY OF FOLDING: -156.8 KCAL/MOL
REMARK 350 APPLY THE FOLLOWING TO CHAINS: B,W
REMARK 350   BIOMT1   1  1.000000  0.000000  0.000000        0.00000
REMARK 350   BIOMT2   1  0.000000  1.000000  0.000000        0.00000
REMARK 350   BIOMT3   1  0.000000  0.000000  1.000000        0.00000
CRYST1   89.018   89.018   39.676  90.00  90.00  90.00 P 43                     


$$$$
SARS2_Mac1A-A0780
  PyMOL3.0          3D                             0

 25 27  0  0  0  0  0  0  0  0999 V2000
   -6.7260   15.2990    0.3440 N   0  0  0  0  0  0  0  0  0  0  0  0
   -7.7340   14.9490    1.3310 C   0  0  0  0  0  0  0  0  0  0  0  0
   -3.3210   15.7100   -3.1830 O   0  0  0  0  0  0  0  0  0  0  0  0
   -5.9110   15.4570   -1.6320 C   0  0  0  0  0  0  0  0  0  0  0  0
   -7.0470   15.3800   -0.9790 N   0  0  0  0  0  0  0  0  0  0  0  0
    2.1980   13.3120   -2.1280 O   0  0  0  0  0  0  0  0  0  0  0  0
   -4.8120   15.4890   -0.7410 C   0  0  0  0  0  0  0  0  0  0  0  0
   -1.4460   15.0750   -2.1230 N   0  0  0  0  0  0  0  0  0  0  0  0
    0.4640   13.9750   -0.8780 O   0  0  0  0  0  0  0  0  0  0  0  0
   -3.4140   15.5630   -0.8090 C   0  0  0  0  0  0  0  0  0  0  0  0
   -4.7410   15.5410    1.6890 N   0  0  0  0  0  0  0  0  0  0  0  0
   -2.7220   15.4700   -2.1370 C   0  0  0  0  0  0  0  0  0  0  0  0
   -0.6710   14.8930   -3.3470 C   0  0  0  0  0  0  0  0  0  0  0  0
    0.7840   15.0830   -2.9380 C   0  0  0  0  0  0  0  0  0  0  0  0
    1.2280   14.0440   -1.9370 C   0  0  0  0  0  0  0  0  0  0  0  0
   -0.8550   13.5110   -3.9490 C   0  0  0  0  0  0  0  0  0  0  0  0
    0.0070   13.0490   -4.9350 C   0  0  0  0  0  0  0  0  0  0  0  0
   -0.1400   11.7880   -5.4820 C   0  0  0  0  0  0  0  0  0  0  0  0
   -1.1590   10.9800   -5.0300 C   0  0  0  0  0  0  0  0  0  0  0  0
   -2.0130   11.3950   -4.0380 C   0  0  0  0  0  0  0  0  0  0  0  0
   -1.8630   12.6640   -3.5100 C   0  0  0  0  0  0  0  0  0  0  0  0
   -2.7110   15.6360    0.3930 C   0  0  0  0  0  0  0  0  0  0  0  0
   -3.4100   15.6390    1.5890 C   0  0  0  0  0  0  0  0  0  0  0  0
   -5.3910   15.4420    0.5250 C   0  0  0  0  0  0  0  0  0  0  0  0
   -1.3840    9.2550   -5.7840 Br  0  0  0  0  0  0  0  0  0  0  0  0
  1  2  1  0  0  0  0
  1  5  4  0  0  0  0
  4  5  4  0  0  0  0
  4  7  4  0  0  0  0
  8 12  1  0  0  0  0
  7 10  4  0  0  0  0
 10 22  4  0  0  0  0
 11 24  4  0  0  0  0
  3 12  2  0  0  0  0
 10 12  1  0  0  0  0
  8 13  1  0  0  0  0
 13 14  1  0  0  0  0
 14 15  1  0  0  0  0
  6 15  4  0  0  0  0
  9 15  4  0  0  0  0
 13 16  1  0  0  0  0
 16 17  4  0  0  0  0
 17 18  4  0  0  0  0
 18 19  4  0  0  0  0
 19 20  4  0  0  0  0
 20 21  4  0  0  0  0
 16 21  4  0  0  0  0
 22 23  4  0  0  0  0
 11 23  4  0  0  0  0
  1 24  4  0  0  0  0
  7 24  4  0  0  0  0
 19 25  1  0  0  0  0
M  END
>  <pdb_header>
HEADER    ----                                    18-MAY-20                     
TITLE     ---                                                                   
EXPDTA    X-RAY DIFFRACTION                                                     
REMARK --------------------- added by autoBUSTER ---------------------------------START
REMARK run at   = Mon Mar 20 14:07:38 GMT 2023
REMARK     in   = /dls/labxchem/data/lb32627/lb32627-1/processing/analysis/model_building/SARS2_Mac1A-A0780
REMARK     user = dcn76311
REMARK     cmd  = \
REMARK            /dls_sw/apps/GPhL/BUSTER/20221121/autoBUSTER/bin/linux64/refine \
REMARK            -p \
REMARK            /dls/labxchem/data/lb32627/lb32627-1/processing/analysis/model_building/SARS2_Mac1A-A0780/cootOut/Refi
REMARK            -m \
REMARK            /dls/labxchem/data/lb32627/lb32627-1/processing/analysis/model_building/SARS2_Mac1A-A0780/SARS2_Mac1A-
REMARK            -l \
REMARK            /dls/labxchem/data/lb32627/lb32627-1/processing/analysis/model_building/SARS2_Mac1A-A0780/ASAP-0000605
REMARK            -autoncs -M TLSbasic -d Refine_10
REMARK Files used:
REMARK   PDB              = Refine_10/pdbchk.pdb
REMARK   MTZ              = /dls/labxchem/data/lb32627/lb32627-1/processing/analysis/model_building/SARS2_Mac1A-A0780/SA
REMARK output written to subdirectory = Refine_10
REMARK best refinement for F,SIGF with R/Rfree 0.1801/0.2044
REMARK header records are copied from input PDB file (apart from REMARK 3!)
REMARK --------------------- added by autoBUSTER -----------------------------------END
REMARK --------------------- added by autoBUSTER -------------------------------
REMARK run at   = Tue Feb 14 14:46:03 GMT 2023                                  
REMARK     in   = /dls/labxchem/data/lb32627/lb32627-1/processing/analysis/model
REMARK     user = dcn76311                                                      
REMARK     cmd  = \                                                             
REMARK            /dls_sw/apps/GPhL/BUSTER/20221121/autoBUSTER/bin/linux64/refin
REMARK            -p \                                                          
REMARK            /dls/labxchem/data/lb32627/lb32627-1/processing/analysis/model
REMARK            -m \                                                          
REMARK            /dls/labxchem/data/lb32627/lb32627-1/processing/analysis/model
REMARK            -l \                                                          
REMARK            /dls/labxchem/data/lb32627/lb32627-1/processing/analysis/model
REMARK            -autoncs -M TLSbasic -d Refine_9                              
REMARK Files used:                                                              
REMARK   PDB              = Refine_9/pdbchk.pdb                                 
REMARK   MTZ              = /dls/labxchem/data/lb32627/lb32627-1/processing/anal
REMARK output written to subdirectory = Refine_9                                
REMARK best refinement for F,SIGF with R/Rfree 0.1802/0.2043                    
REMARK header records are copied from input PDB file (apart from REMARK 3!)     
REMARK --------------------- added by autoBUSTER -------------------------------
REMARK --------------------- added by autoBUSTER -------------------------------
REMARK run at   = Tue Feb 14 13:43:59 GMT 2023                                  
REMARK     in   = /dls/labxchem/data/lb32627/lb32627-1/processing/analysis/model
REMARK     user = dcn76311                                                      
REMARK     cmd  = \                                                             
REMARK            /dls_sw/apps/GPhL/BUSTER/20221121/autoBUSTER/bin/linux64/refin
REMARK            -p \                                                          
REMARK            /dls/labxchem/data/lb32627/lb32627-1/processing/analysis/model
REMARK            -m \                                                          
REMARK            /dls/labxchem/data/lb32627/lb32627-1/processing/analysis/model
REMARK            -l \                                                          
REMARK            /dls/labxchem/data/lb32627/lb32627-1/processing/analysis/model
REMARK            -autoncs -M TLSbasic -d Refine_8                              
REMARK Files used:                                                              
REMARK   PDB              = Refine_8/pdbchk.pdb                                 
REMARK   MTZ              = /dls/labxchem/data/lb32627/lb32627-1/processing/anal
REMARK output written to subdirectory = Refine_8                                
REMARK best refinement for F,SIGF with R/Rfree 0.1802/0.2043                    
REMARK header records are copied from input PDB file (apart from REMARK 3!)     
REMARK --------------------- added by autoBUSTER -------------------------------
REMARK --------------------- added by autoBUSTER -------------------------------
REMARK run at   = Tue Feb 14 13:17:13 GMT 2023                                  
REMARK     in   = /dls/labxchem/data/lb32627/lb32627-1/processing/analysis/model
REMARK     user = dcn76311                                                      
REMARK     cmd  = \                                                             
REMARK            /dls_sw/apps/GPhL/BUSTER/20221121/autoBUSTER/bin/linux64/refin
REMARK            -p \                                                          
REMARK            /dls/labxchem/data/lb32627/lb32627-1/processing/analysis/model
REMARK            -m \                                                          
REMARK            /dls/labxchem/data/lb32627/lb32627-1/processing/analysis/model
REMARK            -l \                                                          
REMARK            /dls/labxchem/data/lb32627/lb32627-1/processing/analysis/model
REMARK            -autoncs -M TLSbasic -d Refine_7                              
REMARK Files used:                                                              
REMARK   PDB              = Refine_7/pdbchk.pdb                                 
REMARK   MTZ              = /dls/labxchem/data/lb32627/lb32627-1/processing/anal
REMARK output written to subdirectory = Refine_7                                
REMARK best refinement for F,SIGF with R/Rfree 0.1806/0.2045                    
REMARK header records are copied from input PDB file (apart from REMARK 3!)     
REMARK --------------------- added by autoBUSTER -------------------------------
REMARK --------------------- added by autoBUSTER -------------------------------
REMARK run at   = Tue Feb 14 11:42:46 GMT 2023                                  
REMARK     in   = /dls/labxchem/data/lb32627/lb32627-1/processing/analysis/model
REMARK     user = dcn76311                                                      
REMARK     cmd  = \                                                             
REMARK            /dls_sw/apps/GPhL/BUSTER/20221121/autoBUSTER/bin/linux64/refin
REMARK            -p \                                                          
REMARK            /dls/labxchem/data/lb32627/lb32627-1/processing/analysis/model
REMARK            -m \                                                          
REMARK            /dls/labxchem/data/lb32627/lb32627-1/processing/analysis/model
REMARK            -l \                                                          
REMARK            /dls/labxchem/data/lb32627/lb32627-1/processing/analysis/model
REMARK            -autoncs -M TLSbasic -d Refine_6                              
REMARK Files used:                                                              
REMARK   PDB              = Refine_6/pdbchk.pdb                                 
REMARK   MTZ              = /dls/labxchem/data/lb32627/lb32627-1/processing/anal
REMARK output written to subdirectory = Refine_6                                
REMARK best refinement for F,SIGF with R/Rfree 0.1812/0.2063                    
REMARK header records are copied from input PDB file (apart from REMARK 3!)     
REMARK --------------------- added by autoBUSTER -------------------------------
REMARK --------------------- added by autoBUSTER -------------------------------
REMARK run at   = Tue Feb 14 11:10:47 GMT 2023                                  
REMARK     in   = /dls/labxchem/data/lb32627/lb32627-1/processing/analysis/model
REMARK     user = dcn76311                                                      
REMARK     cmd  = \                                                             
REMARK            /dls_sw/apps/GPhL/BUSTER/20221121/autoBUSTER/bin/linux64/refin
REMARK            -p \                                                          
REMARK            /dls/labxchem/data/lb32627/lb32627-1/processing/analysis/model
REMARK            -m \                                                          
REMARK            /dls/labxchem/data/lb32627/lb32627-1/processing/analysis/model
REMARK            -l \                                                          
REMARK            /dls/labxchem/data/lb32627/lb32627-1/processing/analysis/model
REMARK            -autoncs -M TLSbasic -d Refine_5                              
REMARK Files used:                                                              
REMARK   PDB              = Refine_5/pdbchk.pdb                                 
REMARK   MTZ              = /dls/labxchem/data/lb32627/lb32627-1/processing/anal
REMARK output written to subdirectory = Refine_5                                
REMARK best refinement for F,SIGF with R/Rfree 0.1807/0.2046                    
REMARK header records are copied from input PDB file (apart from REMARK 3!)     
REMARK --------------------- added by autoBUSTER -------------------------------
REMARK --------------------- added by autoBUSTER -------------------------------
REMARK run at   = Tue Feb 14 08:49:36 GMT 2023                                  
REMARK     in   = /dls/labxchem/data/lb32627/lb32627-1/processing/analysis/model
REMARK     user = dcn76311                                                      
REMARK     cmd  = \                                                             
REMARK            /dls_sw/apps/GPhL/BUSTER/20221121/autoBUSTER/bin/linux64/refin
REMARK            -p \                                                          
REMARK            /dls/labxchem/data/lb32627/lb32627-1/processing/analysis/model
REMARK            -m \                                                          
REMARK            /dls/labxchem/data/lb32627/lb32627-1/processing/analysis/model
REMARK            -l \                                                          
REMARK            /dls/labxchem/data/lb32627/lb32627-1/processing/analysis/model
REMARK            -autoncs -M TLSbasic -d Refine_4                              
REMARK Files used:                                                              
REMARK   PDB              = Refine_4/pdbchk.pdb                                 
REMARK   MTZ              = /dls/labxchem/data/lb32627/lb32627-1/processing/anal
REMARK output written to subdirectory = Refine_4                                
REMARK best refinement for F,SIGF with R/Rfree 0.1813/0.2072                    
REMARK header records are copied from input PDB file (apart from REMARK 3!)     
REMARK --------------------- added by autoBUSTER -------------------------------
REMARK --------------------- added by autoBUSTER -------------------------------
REMARK run at   = Tue Feb 14 08:16:27 GMT 2023                                  
REMARK     in   = /dls/labxchem/data/lb32627/lb32627-1/processing/analysis/model
REMARK     user = dcn76311                                                      
REMARK     cmd  = \                                                             
REMARK            /dls_sw/apps/GPhL/BUSTER/20221121/autoBUSTER/bin/linux64/refin
REMARK            -p \                                                          
REMARK            /dls/labxchem/data/lb32627/lb32627-1/processing/analysis/model
REMARK            -m \                                                          
REMARK            /dls/labxchem/data/lb32627/lb32627-1/processing/analysis/model
REMARK            -l \                                                          
REMARK            /dls/labxchem/data/lb32627/lb32627-1/processing/analysis/model
REMARK            -autoncs -M TLSbasic -d Refine_3                              
REMARK Files used:                                                              
REMARK   PDB              = Refine_3/pdbchk.pdb                                 
REMARK   MTZ              = /dls/labxchem/data/lb32627/lb32627-1/processing/anal
REMARK output written to subdirectory = Refine_3                                
REMARK best refinement for F,SIGF with R/Rfree 0.1823/0.2097                    
REMARK header records are copied from input PDB file (apart from REMARK 3!)     
REMARK --------------------- added by autoBUSTER -------------------------------
REMARK --------------------- added by autoBUSTER -------------------------------
REMARK run at   = Tue Feb  7 14:35:54 GMT 2023                                  
REMARK     in   = /dls/labxchem/data/lb32627/lb32627-1/processing/analysis/model
REMARK     user = dcn76311                                                      
REMARK     cmd  = \                                                             
REMARK            /dls_sw/apps/GPhL/BUSTER/20221121/autoBUSTER/bin/linux64/refin
REMARK            -p \                                                          
REMARK            /dls/labxchem/data/lb32627/lb32627-1/processing/analysis/model
REMARK            -m \                                                          
REMARK            /dls/labxchem/data/lb32627/lb32627-1/processing/analysis/model
REMARK            -l \                                                          
REMARK            /dls/labxchem/data/lb32627/lb32627-1/processing/analysis/model
REMARK            -autoncs -M TLSbasic -d Refine_2                              
REMARK Files used:                                                              
REMARK   PDB              = Refine_2/pdbchk.pdb                                 
REMARK   MTZ              = /dls/labxchem/data/lb32627/lb32627-1/processing/anal
REMARK output written to subdirectory = Refine_2                                
REMARK best refinement for F,SIGF with R/Rfree 0.1819/0.2103                    
REMARK header records are copied from input PDB file (apart from REMARK 3!)     
REMARK --------------------- added by autoBUSTER -------------------------------
REMARK --------------------- added by autoBUSTER -------------------------------
REMARK run at   = Thu Feb  2 10:45:53 GMT 2023                                  
REMARK     in   = /dls/labxchem/data/lb32627/lb32627-1/processing/analysis/model
REMARK     user = dcn76311                                                      
REMARK     cmd  = \                                                             
REMARK            /dls_sw/apps/GPhL/BUSTER/20221121/autoBUSTER/bin/linux64/refin
REMARK            -p \                                                          
REMARK            /dls/labxchem/data/lb32627/lb32627-1/processing/analysis/model
REMARK            -m \                                                          
REMARK            /dls/labxchem/data/lb32627/lb32627-1/processing/analysis/model
REMARK            -l \                                                          
REMARK            /dls/labxchem/data/lb32627/lb32627-1/processing/analysis/model
REMARK            -autoncs -M TLSbasic -d Refine_1                              
REMARK Files used:                                                              
REMARK   PDB              = Refine_1/pdbchk.pdb                                 
REMARK   MTZ              = /dls/labxchem/data/lb32627/lb32627-1/processing/anal
REMARK output written to subdirectory = Refine_1                                
REMARK best refinement for F,SIGF with R/Rfree 0.1826/0.2116                    
REMARK header records are copied from input PDB file (apart from REMARK 3!)     
REMARK --------------------- added by autoBUSTER -------------------------------
REMARK   2                                                            
REMARK   2 RESOLUTION.    1.18 ANGSTROMS.
REMARK   3
REMARK   3 REFINEMENT.
REMARK   3   PROGRAM     : BUSTER 2.10.4 (21-NOV-2022)
REMARK   3   AUTHORS     : BRICOGNE,BLANC,BRANDL,FLENSBURG,KELLER,
REMARK   3               : PACIOREK,ROVERSI,SHARFF,SMART,VONRHEIN,WOMACK;
REMARK   3               : MATTHEWS,TEN EYCK,TRONRUD
REMARK   3
REMARK   3  DATA USED IN REFINEMENT.
REMARK   3   RESOLUTION RANGE HIGH (ANGSTROMS) : 1.177
REMARK   3   RESOLUTION RANGE LOW  (ANGSTROMS) : 16.73
REMARK   3   DATA CUTOFF            (SIGMA(F)) : 0.000
REMARK   3   COMPLETENESS FOR RANGE        (%) : 90.8
REMARK   3   NUMBER OF REFLECTIONS             : 93256
REMARK   3
REMARK   3  FIT TO DATA USED IN REFINEMENT.
REMARK   3   CROSS-VALIDATION METHOD          : THROUGHOUT
REMARK   3   FREE R VALUE TEST SET SELECTION  : RANDOM
REMARK   3   R VALUE     (WORKING + TEST SET) : 0.1813
REMARK   3   R VALUE            (WORKING SET) : 0.1801
REMARK   3   FREE R VALUE                     : 0.2044
REMARK   3   FREE R VALUE TEST SET SIZE   (%) : 4.990
REMARK   3   FREE R VALUE TEST SET COUNT      : 4653
REMARK   3   ESTIMATED ERROR OF FREE R VALUE  : NULL
REMARK   3
REMARK   3  FIT IN THE HIGHEST RESOLUTION BIN.
REMARK   3   TOTAL NUMBER OF BINS USED           : 51
REMARK   3   BIN RESOLUTION RANGE HIGH       (A) : 1.18
REMARK   3   BIN RESOLUTION RANGE LOW        (A) : 1.20
REMARK   3   BIN COMPLETENESS (WORKING+TEST) (%) : 35.09
REMARK   3   REFLECTIONS IN BIN   (WORKING+TEST) : 1866
REMARK   3   BIN R VALUE          (WORKING+TEST) : 0.4459
REMARK   3   REFLECTIONS IN BIN    (WORKING SET) : 1746
REMARK   3   BIN R VALUE           (WORKING SET) : 0.4454
REMARK   3   BIN FREE R VALUE                    : 0.4536
REMARK   3   BIN FREE R VALUE TEST SET SIZE  (%) : 6.43
REMARK   3   BIN FREE R VALUE TEST SET COUNT     : 120
REMARK   3   ESTIMATED ERROR OF BIN FREE R VALUE : NULL
REMARK   3
REMARK   3  NUMBER OF NON-HYDROGEN ATOMS USED IN REFINEMENT.
REMARK   3   PROTEIN ATOMS            : 2519
REMARK   3   NUCLEIC ACID ATOMS       : 0
REMARK   3   HETEROGEN ATOMS          : 29
REMARK   3   SOLVENT ATOMS            : 421
REMARK   3
REMARK   3  B VALUES.
REMARK   3   FROM WILSON PLOT           (A**2) : 14.77
REMARK   3   MEAN B VALUE      (OVERALL, A**2) : 22.93
REMARK   3   OVERALL ANISOTROPIC B VALUE.
REMARK   3    B11 (A**2) : 4.18220
REMARK   3    B22 (A**2) : 4.18220
REMARK   3    B33 (A**2) : -8.36440
REMARK   3    B12 (A**2) : 0.00000
REMARK   3    B13 (A**2) : 0.00000
REMARK   3    B23 (A**2) : 0.00000
REMARK   3
REMARK   3  ESTIMATED COORDINATE ERROR.
REMARK   3   ESD FROM LUZZATI PLOT                    (A) : 0.18
REMARK   3   DPI (BLOW EQ-10) BASED ON R VALUE        (A) : 0.045
REMARK   3   DPI (BLOW EQ-9) BASED ON FREE R VALUE    (A) : 0.047
REMARK   3   DPI (CRUICKSHANK) BASED ON R VALUE       (A) : 0.042
REMARK   3   DPI (CRUICKSHANK) BASED ON FREE R VALUE  (A) : 0.045
REMARK   3
REMARK   3   REFERENCES: BLOW, D. (2002) ACTA CRYST D58, 792-797
REMARK   3               CRUICKSHANK, D.W.J. (1999) ACTA CRYST D55, 583-601
REMARK   3
REMARK   3  CORRELATION COEFFICIENTS.
REMARK   3   CORRELATION COEFFICIENT FO-FC      : 0.958
REMARK   3   CORRELATION COEFFICIENT FO-FC FREE : 0.955
REMARK   3
REMARK   3  X-RAY WEIGHT : 5.36
REMARK   3
REMARK   3  GEOMETRY FUNCTION.                                                  
REMARK   3   RESTRAINT LIBRARIES.                                               
REMARK   3    NUMBER OF LIBRARIES USED :   9                                    
REMARK   3    LIBRARY  1 : protgeo_eh99.dat (V1.6.4.20) 20220523  STANDARD      
REMARK   3                 AMINO ACID DICTIONARY. BONDS AND ANGLES FROM         
REMARK   3                 ENGH AND HUBER EH99. OTHER VALUES BASED ON           
REMARK   3                 PREVIOUS TNT OR TAKEN FROM CCP4. INCLUDES            
REMARK   3                 HYDROGEN ATOMS.                                      
REMARK   3    LIBRARY  2 : exoticaa.dat (V1.3.4.16) 20220523  COLLECTION        
REMARK   3                 OF NON-STANDARD AMINO ACIDS, MAINLY EH91             
REMARK   3                 WITHOUT IDEAL DISTANCE INFO                          
REMARK   3    LIBRARY  3 : nuclgeo.dat (V1.13.4.9) 20221011                     
REMARK   3    LIBRARY  4 : bcorrel.dat (V1.15.10.2) 20190616                    
REMARK   3    LIBRARY  5 : contact.dat (V1.15.12.10) 20191121                   
REMARK   3    LIBRARY  6 : idealdist_contact.dat (V1.3.4.13) 20220125           
REMARK   3                 IDEAL-DISTANCE CONTACT TERM DATA AS USED IN          
REMARK   3                 PROLSQ. VALUES USED HERE ARE BASED ON DATA           
REMARK   3                 HARVESTING OF PDB AS OF 20190109.                    
REMARK   3    LIBRARY  7 : restraints for LIG (unknown) from cif                
REMARK   3                 dictionary ASAP-0000605-001.cif; generated by        
REMARK   3                 GRADE 1.2.21 (Feb 03 2022) from SMILES               
REMARK   3                 Cn1ncc2c(C(=O)N[C@@H](CC(=O)O)c3ccc(Br)cc3)ccnc2     
REMARK   3                 1 using MOGUL 1.8.5(274361), CSD as541be, with       
REMARK   3                 quantum mechanics RM1                                
REMARK   3    LIBRARY  8 : restraints for DMS (DIMETHYL SULFOXIDE) from         
REMARK   3                 cif dictionary DMS.cif; generated by grade2          
REMARK   3                 version 1.1.0a7 from                                 
REMARK   3                 PDB_chemical_components_definition_file              
REMARK   3                 ftp://ftp.ebi.ac.uk/pub/databases/msd/pdbechem_v     
REMARK   3                 2/D/DMS/DMS.cif using RDKit 2021.03.4                
REMARK   3                 ((DatabaseID PDB-DMS))                               
REMARK   3    LIBRARY  9 : assume.dat (V1.9.4.3) 20221011                       
REMARK   3                                                                      
REMARK   3   NUMBER OF GEOMETRIC FUNCTION TERMS DEFINED : 15                    
REMARK   3   TERM                          COUNT    WEIGHT   FUNCTION.          
REMARK   3    BOND LENGTHS              :   2659 ;   2.00 ;  HARMONIC           
REMARK   3    BOND ANGLES               :   3630 ;   2.00 ;  HARMONIC           
REMARK   3    TORSION ANGLES            :    911 ;   2.00 ;  SINUSOIDAL         
REMARK   3    TRIGONAL CARBON PLANES    :   NULL ;   NULL ;  NULL               
REMARK   3    GENERAL PLANES            :    486 ;   5.00 ;  HARMONIC           
REMARK   3    ISOTROPIC THERMAL FACTORS :   2659 ;  10.00 ;  HARMONIC           
REMARK   3    BAD NON-BONDED CONTACTS   :   NULL ;   NULL ;  NULL               
REMARK   3    IMPROPER TORSIONS         :   NULL ;   NULL ;  NULL               
REMARK   3    PSEUDOROTATION ANGLES     :   NULL ;   NULL ;  NULL               
REMARK   3    CHIRAL IMPROPER TORSION   :    342 ;   5.00 ;  SEMIHARMONIC       
REMARK   3    SUM OF OCCUPANCIES        :   NULL ;   NULL ;  NULL               
REMARK   3    UTILITY DISTANCES         :   NULL ;   NULL ;  NULL               
REMARK   3    UTILITY ANGLES            :   NULL ;   NULL ;  NULL               
REMARK   3    UTILITY TORSION           :   NULL ;   NULL ;  NULL               
REMARK   3    IDEAL-DIST CONTACT TERM   :   2758 ;   4.00 ;  SEMIHARMONIC       
REMARK   3                                                                      
REMARK   3   RMS DEVIATIONS FROM IDEAL VALUES.                                  
REMARK   3   BOND LENGTHS                       (A) : 0.013                     
REMARK   3   BOND ANGLES                  (DEGREES) : 1.17                      
REMARK   3   PEPTIDE OMEGA TORSION ANGLES (DEGREES) : 5.02                      
REMARK   3   OTHER TORSION ANGLES         (DEGREES) : 14.50                     
REMARK   3                                                                      
REMARK   3   SIMILARITY.                                                        
REMARK   3    NCS.                                                              
REMARK   3     NCS METHOD: RESTRAINT LSSR (-AUTONCS)                            
REMARK   3    TARGET RESTRAINTS.                                                
REMARK   3     TARGET REPRESENTATION : NONE                                     
REMARK   3     TARGET STRUCTURE : NULL                                          
REMARK   3                                                                      
REMARK   3  TLS DETAILS.                                                        
REMARK   3   NUMBER OF TLS GROUPS  :            2                               
REMARK   3                                                                      
REMARK   3   TLS GROUP :            1                                           
REMARK   3    SET : { A|* }                                                     
REMARK   3    ORIGIN FOR THE GROUP (A):    4.2691   21.2992   -0.3700           
REMARK   3    T TENSOR                                                          
REMARK   3     T11:   -0.0122 T22:   -0.0193                                    
REMARK   3     T33:    0.0115 T12:   -0.0016                                    
REMARK   3     T13:   -0.0241 T23:    0.0138                                    
REMARK   3    L TENSOR                                                          
REMARK   3     L11:    0.9938 L22:    0.8714                                    
REMARK   3     L33:    0.0293 L12:   -0.5158                                    
REMARK   3     L13:    0.1419 L23:   -0.0025                                    
REMARK   3    S TENSOR                                                          
REMARK   3     S11:    0.0110 S12:   -0.0260 S13:   -0.0470                     
REMARK   3     S21:    0.0324 S22:    0.0034 S23:   -0.0595                     
REMARK   3     S31:    0.0020 S32:   -0.0292 S33:   -0.0144                     
REMARK   3                                                                      
REMARK   3   TLS GROUP :            2                                           
REMARK   3    SET : { B|* }                                                     
REMARK   3    ORIGIN FOR THE GROUP (A):   22.3729   43.2490   -7.8653           
REMARK   3    T TENSOR                                                          
REMARK   3     T11:   -0.0330 T22:   -0.0216                                    
REMARK   3     T33:    0.0220 T12:    0.0080                                    
REMARK   3     T13:   -0.0042 T23:   -0.0003                                    
REMARK   3    L TENSOR                                                          
REMARK   3     L11:    0.9561 L22:    1.0358                                    
REMARK   3     L33:    0.1829 L12:   -0.1881                                    
REMARK   3     L13:   -0.2426 L23:    0.1371                                    
REMARK   3    S TENSOR                                                          
REMARK   3     S11:    0.0580 S12:   -0.0073 S13:   -0.0680                     
REMARK   3     S21:   -0.0053 S22:   -0.0559 S23:   -0.1008                     
REMARK   3     S31:   -0.0436 S32:   -0.0145 S33:   -0.0021                     
REMARK   3                                                                      
REMARK   3  REFINEMENT NOTES.                                                   
REMARK   3   NUMBER OF REFINEMENT NOTES :   1                                   
REMARK   3   NOTE   1 : IDEAL-DIST CONTACT TERM CONTACT SETUP. ALL ATOMS        
REMARK   3               HAVE CCP4 ATOM TYPE FROM LIBRARY                       
REMARK   3
REMARK   3  OTHER REFINEMENT REMARKS: NULL
REMARK   3
REMARK 290                                                            
REMARK 290 CRYSTALLOGRAPHIC SYMMETRY                                  
REMARK 290 SYMMETRY OPERATORS FOR SPACE GROUP: P 43                   
REMARK 290                                                            
REMARK 290      SYMOP   SYMMETRY                                      
REMARK 290     NNNMMM   OPERATOR                                      
REMARK 290       1555   X,Y,Z                                         
REMARK 290       2555   -X,-Y,1/2+Z                                   
REMARK 290       3555   -Y,X,3/4+Z                                    
REMARK 290       4555   Y,-X,1/4+Z                                    
REMARK 290                                                            
REMARK 290     WHERE NNN -> OPERATOR NUMBER                           
REMARK 290           MMM -> TRANSLATION VECTOR                        
REMARK 290                                                            
REMARK 290 CRYSTALLOGRAPHIC SYMMETRY TRANSFORMATIONS                  
REMARK 290 THE FOLLOWING TRANSFORMATIONS OPERATE ON THE ATOM/HETATM   
REMARK 290 RECORDS IN THIS ENTRY TO PRODUCE CRYSTALLOGRAPHICALLY      
REMARK 290 RELATED MOLECULES.                                         
REMARK 290   SMTRY1   1  1.000000  0.000000  0.000000        0.00000
REMARK 290   SMTRY2   1  0.000000  1.000000  0.000000        0.00000
REMARK 290   SMTRY3   1  0.000000  0.000000  1.000000        0.00000
REMARK 290   SMTRY1   2 -1.000000  0.000000  0.000000        0.00000
REMARK 290   SMTRY2   2  0.000000 -1.000000  0.000000        0.00000
REMARK 290   SMTRY3   2  0.000000  0.000000  1.000000       19.75850
REMARK 290   SMTRY1   3  0.000000 -1.000000  0.000000        0.00000
REMARK 290   SMTRY2   3  1.000000  0.000000  0.000000        0.00000
REMARK 290   SMTRY3   3  0.000000  0.000000  1.000000       29.63775
REMARK 290   SMTRY1   4  0.000000  1.000000  0.000000        0.00000
REMARK 290   SMTRY2   4 -1.000000  0.000000  0.000000        0.00000
REMARK 290   SMTRY3   4  0.000000  0.000000  1.000000        9.87925
REMARK 290                                                            
REMARK 290 REMARK: NULL                                               
REMARK 300
REMARK 300 BIOMOLECULE: 1
REMARK 300 SEE REMARK 350 FOR THE AUTHOR PROVIDED AND/OR PROGRAM
REMARK 300 GENERATED ASSEMBLY INFORMATION FOR THE STRUCTURE IN
REMARK 300 THIS ENTRY. THE REMARK MAY ALSO  PROVIDE INFORMATION ON
REMARK 300 BURIED SURFACE AREA.
REMARK 350
REMARK 350 COORDINATES FOR A COMPLETE MULTIMER REPRESENTING THE KNOWN
REMARK 350 BIOLOGICALLY SIGNIFICANT OLIGOMERIZATION STATE OF THE
REMARK 350 MOLECULE CAN BE GENERATED BY APPLYING BIOMT TRANSFORMATIONS
REMARK 350 GIVEN BELOW. BOTH NON-CRYSTALLOGRAPHIC AND
REMARK 350 CRYSTALLOGRAPHIC OPERATIONS ARE GIVEN.
REMARK 350
REMARK 350 BIOMOLECULE: 1
REMARK 350 SOFTWARE DETERMINED QUATERNARY STRUCTURE: DIMERIC
REMARK 350 SOFTWARE USED: PISA
REMARK 350 TOTAL BURIED SURFACE AREA: 2595 ANGSTROM**2
REMARK 350 SURFACE AREA OF THE COMPLEX: 15865 ANGSTROM**2
REMARK 350 CHANGE IN SOLVENT FREE ENERGY: -4.0 KCAL/MOL
REMARK 350 APPLY THE FOLLOWING TO CHAINS: A, B,W
REMARK 350   BIOMT1   1  1.000000  0.000000  0.000000       -0.00000
REMARK 350   BIOMT2   1  0.000000  1.000000  0.000000       -0.00000
REMARK 350   BIOMT3   1  0.000000  0.000000  1.000000        0.00000
CRYST1   89.002   89.002   39.517  90.00  90.00  90.00 P 43                     


$$$$
SARS2_Mac1A-A0852
  PyMOL3.0          3D                             0

 24 26  0  0  0  0  0  0  0  0999 V2000
   -0.7390   14.1530   -4.1160 N   0  0  0  0  0  0  0  0  0  0  0  0
    1.3810   12.2730   -2.8340 C   0  0  0  0  0  0  0  0  0  0  0  0
    1.4770   12.9530   -1.8520 O   0  0  0  0  0  0  0  0  0  0  0  0
    1.3440   12.8690   -4.1890 C   0  0  0  0  0  0  0  0  0  0  0  0
   -4.9810   15.7310    0.1720 N   0  0  0  0  0  0  0  0  0  0  0  0
    0.9000   11.0320   -2.8170 O   0  0  0  0  0  0  0  0  0  0  0  0
   -0.1460   12.8320   -4.2720 C   0  0  0  0  0  0  0  0  0  0  0  0
   -2.3000   14.9490   -1.9590 N   0  0  0  0  0  0  0  0  0  0  0  0
   -2.4440   14.4750   -5.4850 O   0  0  0  0  0  0  0  0  0  0  0  0
   -2.0210   14.4180   -4.3440 C   0  0  0  0  0  0  0  0  0  0  0  0
   -2.8690   14.8690   -3.1760 C   0  0  0  0  0  0  0  0  0  0  0  0
   -4.2180   15.1310   -3.3950 C   0  0  0  0  0  0  0  0  0  0  0  0
   -5.0400   15.4100   -2.3170 C   0  0  0  0  0  0  0  0  0  0  0  0
   -4.4510   15.4550   -1.0660 C   0  0  0  0  0  0  0  0  0  0  0  0
   -3.9740   15.7270    1.0990 C   0  0  0  0  0  0  0  0  0  0  0  0
   -2.7840   15.4570    0.4980 C   0  0  0  0  0  0  0  0  0  0  0  0
   -3.0750   15.2590   -0.8900 C   0  0  0  0  0  0  0  0  0  0  0  0
   -0.6440   11.8890   -5.3600 C   0  0  0  0  0  0  0  0  0  0  0  0
    0.0920   11.4950   -6.4740 C   0  0  0  0  0  0  0  0  0  0  0  0
   -0.2330   10.3420   -7.1800 C   0  0  0  0  0  0  0  0  0  0  0  0
   -1.3200    9.5810   -6.7660 C   0  0  0  0  0  0  0  0  0  0  0  0
   -2.0590    9.9570   -5.6710 C   0  0  0  0  0  0  0  0  0  0  0  0
   -1.7160   11.1040   -4.9790 C   0  0  0  0  0  0  0  0  0  0  0  0
   -1.7700    7.9580   -7.6620 Br  0  0  0  0  0  0  0  0  0  0  0  0
  1 10  1  0  0  0  0
  2  3  1  0  0  0  0
  2  6  1  0  0  0  0
  2  4  1  0  0  0  0
  1  7  1  0  0  0  0
  4  7  1  0  0  0  0
  8 17  4  0  0  0  0
  9 10  2  0  0  0  0
 10 11  1  0  0  0  0
  8 11  4  0  0  0  0
 11 12  4  0  0  0  0
 12 13  4  0  0  0  0
  5 14  4  0  0  0  0
 13 14  4  0  0  0  0
  5 15  4  0  0  0  0
 15 16  4  0  0  0  0
 14 17  4  0  0  0  0
 16 17  4  0  0  0  0
  7 18  1  0  0  0  0
 18 19  4  0  0  0  0
 19 20  4  0  0  0  0
 20 21  4  0  0  0  0
 21 22  4  0  0  0  0
 22 23  4  0  0  0  0
 18 23  4  0  0  0  0
 21 24  1  0  0  0  0
M  END
>  <pdb_header>
HEADER    ----                                    18-MAY-20                     
TITLE     ---                                                                   
EXPDTA    X-RAY DIFFRACTION                                                     
REMARK --------------------- added by autoBUSTER ---------------------------------START
REMARK run at   = Mon Feb 13 14:22:36 GMT 2023
REMARK     in   = /dls/labxchem/data/lb32627/lb32627-1/processing/analysis/model_building/SARS2_Mac1A-A0852
REMARK     user = dcn76311
REMARK     cmd  = \
REMARK            /dls_sw/apps/GPhL/BUSTER/20221121/autoBUSTER/bin/linux64/refine \
REMARK            -p \
REMARK            /dls/labxchem/data/lb32627/lb32627-1/processing/analysis/model_building/SARS2_Mac1A-A0852/cootOut/Refi
REMARK            -m \
REMARK            /dls/labxchem/data/lb32627/lb32627-1/processing/analysis/model_building/SARS2_Mac1A-A0852/SARS2_Mac1A-
REMARK            -l \
REMARK            /dls/labxchem/data/lb32627/lb32627-1/processing/analysis/model_building/SARS2_Mac1A-A0852/ASAP-0000620
REMARK            -autoncs -M TLSbasic -d Refine_5
REMARK Files used:
REMARK   PDB              = Refine_5/pdbchk.pdb
REMARK   MTZ              = /dls/labxchem/data/lb32627/lb32627-1/processing/analysis/model_building/SARS2_Mac1A-A0852/SA
REMARK output written to subdirectory = Refine_5
REMARK best refinement for F,SIGF with R/Rfree 0.1752/0.2026
REMARK header records are copied from input PDB file (apart from REMARK 3!)
REMARK --------------------- added by autoBUSTER -----------------------------------END
REMARK --------------------- added by autoBUSTER -------------------------------
REMARK run at   = Fri Feb 10 15:21:35 GMT 2023                                  
REMARK     in   = /dls/labxchem/data/lb32627/lb32627-1/processing/analysis/model
REMARK     user = dcn76311                                                      
REMARK     cmd  = \                                                             
REMARK            /dls_sw/apps/GPhL/BUSTER/20221121/autoBUSTER/bin/linux64/refin
REMARK            -p \                                                          
REMARK            /dls/labxchem/data/lb32627/lb32627-1/processing/analysis/model
REMARK            -m \                                                          
REMARK            /dls/labxchem/data/lb32627/lb32627-1/processing/analysis/model
REMARK            -l \                                                          
REMARK            /dls/labxchem/data/lb32627/lb32627-1/processing/analysis/model
REMARK            -autoncs -M TLSbasic -d Refine_4                              
REMARK Files used:                                                              
REMARK   PDB              = Refine_4/pdbchk.pdb                                 
REMARK   MTZ              = /dls/labxchem/data/lb32627/lb32627-1/processing/anal
REMARK output written to subdirectory = Refine_4                                
REMARK best refinement for F,SIGF with R/Rfree 0.1750/0.2018                    
REMARK header records are copied from input PDB file (apart from REMARK 3!)     
REMARK --------------------- added by autoBUSTER -------------------------------
REMARK --------------------- added by autoBUSTER -------------------------------
REMARK run at   = Fri Feb 10 15:00:33 GMT 2023                                  
REMARK     in   = /dls/labxchem/data/lb32627/lb32627-1/processing/analysis/model
REMARK     user = dcn76311                                                      
REMARK     cmd  = \                                                             
REMARK            /dls_sw/apps/GPhL/BUSTER/20221121/autoBUSTER/bin/linux64/refin
REMARK            -p \                                                          
REMARK            /dls/labxchem/data/lb32627/lb32627-1/processing/analysis/model
REMARK            -m \                                                          
REMARK            /dls/labxchem/data/lb32627/lb32627-1/processing/analysis/model
REMARK            -l \                                                          
REMARK            /dls/labxchem/data/lb32627/lb32627-1/processing/analysis/model
REMARK            -autoncs -M TLSbasic -d Refine_3                              
REMARK Files used:                                                              
REMARK   PDB              = Refine_3/pdbchk.pdb                                 
REMARK   MTZ              = /dls/labxchem/data/lb32627/lb32627-1/processing/anal
REMARK output written to subdirectory = Refine_3                                
REMARK best refinement for F,SIGF with R/Rfree 0.1756/0.2022                    
REMARK header records are copied from input PDB file (apart from REMARK 3!)     
REMARK --------------------- added by autoBUSTER -------------------------------
REMARK --------------------- added by autoBUSTER -------------------------------
REMARK run at   = Wed Feb  8 09:52:28 GMT 2023                                  
REMARK     in   = /dls/labxchem/data/lb32627/lb32627-1/processing/analysis/model
REMARK     user = dcn76311                                                      
REMARK     cmd  = \                                                             
REMARK            /dls_sw/apps/GPhL/BUSTER/20221121/autoBUSTER/bin/linux64/refin
REMARK            -p \                                                          
REMARK            /dls/labxchem/data/lb32627/lb32627-1/processing/analysis/model
REMARK            -m \                                                          
REMARK            /dls/labxchem/data/lb32627/lb32627-1/processing/analysis/model
REMARK            -l \                                                          
REMARK            /dls/labxchem/data/lb32627/lb32627-1/processing/analysis/model
REMARK            -autoncs -M TLSbasic -d Refine_2                              
REMARK Files used:                                                              
REMARK   PDB              = Refine_2/pdbchk.pdb                                 
REMARK   MTZ              = /dls/labxchem/data/lb32627/lb32627-1/processing/anal
REMARK output written to subdirectory = Refine_2                                
REMARK best refinement for F,SIGF with R/Rfree 0.1758/0.2042                    
REMARK header records are copied from input PDB file (apart from REMARK 3!)     
REMARK --------------------- added by autoBUSTER -------------------------------
REMARK --------------------- added by autoBUSTER -------------------------------
REMARK run at   = Thu Feb  2 10:46:11 GMT 2023                                  
REMARK     in   = /dls/labxchem/data/lb32627/lb32627-1/processing/analysis/model
REMARK     user = dcn76311                                                      
REMARK     cmd  = \                                                             
REMARK            /dls_sw/apps/GPhL/BUSTER/20221121/autoBUSTER/bin/linux64/refin
REMARK            -p \                                                          
REMARK            /dls/labxchem/data/lb32627/lb32627-1/processing/analysis/model
REMARK            -m \                                                          
REMARK            /dls/labxchem/data/lb32627/lb32627-1/processing/analysis/model
REMARK            -l \                                                          
REMARK            /dls/labxchem/data/lb32627/lb32627-1/processing/analysis/model
REMARK            -autoncs -M TLSbasic -d Refine_1                              
REMARK Files used:                                                              
REMARK   PDB              = Refine_1/pdbchk.pdb                                 
REMARK   MTZ              = /dls/labxchem/data/lb32627/lb32627-1/processing/anal
REMARK output written to subdirectory = Refine_1                                
REMARK best refinement for F,SIGF with R/Rfree 0.1792/0.2094                    
REMARK header records are copied from input PDB file (apart from REMARK 3!)     
REMARK --------------------- added by autoBUSTER -------------------------------
REMARK   2                                                            
REMARK   2 RESOLUTION.    1.25 ANGSTROMS.
REMARK   3
REMARK   3 REFINEMENT.
REMARK   3   PROGRAM     : BUSTER 2.10.4 (21-NOV-2022)
REMARK   3   AUTHORS     : BRICOGNE,BLANC,BRANDL,FLENSBURG,KELLER,
REMARK   3               : PACIOREK,ROVERSI,SHARFF,SMART,VONRHEIN,WOMACK;
REMARK   3               : MATTHEWS,TEN EYCK,TRONRUD
REMARK   3
REMARK   3  DATA USED IN REFINEMENT.
REMARK   3   RESOLUTION RANGE HIGH (ANGSTROMS) : 1.251
REMARK   3   RESOLUTION RANGE LOW  (ANGSTROMS) : 88.76
REMARK   3   DATA CUTOFF            (SIGMA(F)) : 0.000
REMARK   3   COMPLETENESS FOR RANGE        (%) : 79.6
REMARK   3   NUMBER OF REFLECTIONS             : 67360
REMARK   3
REMARK   3  FIT TO DATA USED IN REFINEMENT.
REMARK   3   CROSS-VALIDATION METHOD          : THROUGHOUT
REMARK   3   FREE R VALUE TEST SET SELECTION  : RANDOM
REMARK   3   R VALUE     (WORKING + TEST SET) : 0.1765
REMARK   3   R VALUE            (WORKING SET) : 0.1752
REMARK   3   FREE R VALUE                     : 0.2026
REMARK   3   FREE R VALUE TEST SET SIZE   (%) : 4.920
REMARK   3   FREE R VALUE TEST SET COUNT      : 3311
REMARK   3   ESTIMATED ERROR OF FREE R VALUE  : NULL
REMARK   3
REMARK   3  FIT IN THE HIGHEST RESOLUTION BIN.
REMARK   3   TOTAL NUMBER OF BINS USED           : 51
REMARK   3   BIN RESOLUTION RANGE HIGH       (A) : 1.25
REMARK   3   BIN RESOLUTION RANGE LOW        (A) : 1.29
REMARK   3   BIN COMPLETENESS (WORKING+TEST) (%) : 17.42
REMARK   3   REFLECTIONS IN BIN   (WORKING+TEST) : 1348
REMARK   3   BIN R VALUE          (WORKING+TEST) : 0.3600
REMARK   3   REFLECTIONS IN BIN    (WORKING SET) : 1281
REMARK   3   BIN R VALUE           (WORKING SET) : 0.3589
REMARK   3   BIN FREE R VALUE                    : 0.3789
REMARK   3   BIN FREE R VALUE TEST SET SIZE  (%) : 4.97
REMARK   3   BIN FREE R VALUE TEST SET COUNT     : 67
REMARK   3   ESTIMATED ERROR OF BIN FREE R VALUE : NULL
REMARK   3
REMARK   3  NUMBER OF NON-HYDROGEN ATOMS USED IN REFINEMENT.
REMARK   3   PROTEIN ATOMS            : 2519
REMARK   3   NUCLEIC ACID ATOMS       : 0
REMARK   3   HETEROGEN ATOMS          : 24
REMARK   3   SOLVENT ATOMS            : 429
REMARK   3
REMARK   3  B VALUES.
REMARK   3   FROM WILSON PLOT           (A**2) : 17.25
REMARK   3   MEAN B VALUE      (OVERALL, A**2) : 21.58
REMARK   3   OVERALL ANISOTROPIC B VALUE.
REMARK   3    B11 (A**2) : 4.26110
REMARK   3    B22 (A**2) : 4.26110
REMARK   3    B33 (A**2) : -8.52220
REMARK   3    B12 (A**2) : 0.00000
REMARK   3    B13 (A**2) : 0.00000
REMARK   3    B23 (A**2) : 0.00000
REMARK   3
REMARK   3  ESTIMATED COORDINATE ERROR.
REMARK   3   ESD FROM LUZZATI PLOT                    (A) : 0.16
REMARK   3   DPI (BLOW EQ-10) BASED ON R VALUE        (A) : 0.059
REMARK   3   DPI (BLOW EQ-9) BASED ON FREE R VALUE    (A) : 0.061
REMARK   3   DPI (CRUICKSHANK) BASED ON R VALUE       (A) : 0.055
REMARK   3   DPI (CRUICKSHANK) BASED ON FREE R VALUE  (A) : 0.058
REMARK   3
REMARK   3   REFERENCES: BLOW, D. (2002) ACTA CRYST D58, 792-797
REMARK   3               CRUICKSHANK, D.W.J. (1999) ACTA CRYST D55, 583-601
REMARK   3
REMARK   3  CORRELATION COEFFICIENTS.
REMARK   3   CORRELATION COEFFICIENT FO-FC      : 0.948
REMARK   3   CORRELATION COEFFICIENT FO-FC FREE : 0.944
REMARK   3
REMARK   3  X-RAY WEIGHT : 5.51
REMARK   3
REMARK   3  GEOMETRY FUNCTION.                                                  
REMARK   3   RESTRAINT LIBRARIES.                                               
REMARK   3    NUMBER OF LIBRARIES USED :   8                                    
REMARK   3    LIBRARY  1 : protgeo_eh99.dat (V1.6.4.20) 20220523  STANDARD      
REMARK   3                 AMINO ACID DICTIONARY. BONDS AND ANGLES FROM         
REMARK   3                 ENGH AND HUBER EH99. OTHER VALUES BASED ON           
REMARK   3                 PREVIOUS TNT OR TAKEN FROM CCP4. INCLUDES            
REMARK   3                 HYDROGEN ATOMS.                                      
REMARK   3    LIBRARY  2 : exoticaa.dat (V1.3.4.16) 20220523  COLLECTION        
REMARK   3                 OF NON-STANDARD AMINO ACIDS, MAINLY EH91             
REMARK   3                 WITHOUT IDEAL DISTANCE INFO                          
REMARK   3    LIBRARY  3 : nuclgeo.dat (V1.13.4.9) 20221011                     
REMARK   3    LIBRARY  4 : bcorrel.dat (V1.15.10.2) 20190616                    
REMARK   3    LIBRARY  5 : contact.dat (V1.15.12.10) 20191121                   
REMARK   3    LIBRARY  6 : idealdist_contact.dat (V1.3.4.13) 20220125           
REMARK   3                 IDEAL-DISTANCE CONTACT TERM DATA AS USED IN          
REMARK   3                 PROLSQ. VALUES USED HERE ARE BASED ON DATA           
REMARK   3                 HARVESTING OF PDB AS OF 20190109.                    
REMARK   3    LIBRARY  7 : restraints for LIG (unknown) from cif                
REMARK   3                 dictionary ASAP-0000620-001.cif; generated by        
REMARK   3                 GRADE 1.2.21 (Feb 03 2022) from SMILES               
REMARK   3                 O=C(O)C[C@@H](NC(=O)c1ccc2[nH]ccc2n1)c1ccc(Br)cc     
REMARK   3                 1 using MOGUL 1.8.5(274361), CSD as541be, with       
REMARK   3                 quantum mechanics RM1                                
REMARK   3    LIBRARY  8 : assume.dat (V1.9.4.3) 20221011                       
REMARK   3                                                                      
REMARK   3   NUMBER OF GEOMETRIC FUNCTION TERMS DEFINED : 15                    
REMARK   3   TERM                          COUNT    WEIGHT   FUNCTION.          
REMARK   3    BOND LENGTHS              :   2639 ;   2.00 ;  HARMONIC           
REMARK   3    BOND ANGLES               :   3599 ;   2.00 ;  HARMONIC           
REMARK   3    TORSION ANGLES            :    905 ;   2.00 ;  SINUSOIDAL         
REMARK   3    TRIGONAL CARBON PLANES    :   NULL ;   NULL ;  NULL               
REMARK   3    GENERAL PLANES            :    480 ;   5.00 ;  HARMONIC           
REMARK   3    ISOTROPIC THERMAL FACTORS :   2639 ;  10.00 ;  HARMONIC           
REMARK   3    BAD NON-BONDED CONTACTS   :   NULL ;   NULL ;  NULL               
REMARK   3    IMPROPER TORSIONS         :   NULL ;   NULL ;  NULL               
REMARK   3    PSEUDOROTATION ANGLES     :   NULL ;   NULL ;  NULL               
REMARK   3    CHIRAL IMPROPER TORSION   :    340 ;   5.00 ;  SEMIHARMONIC       
REMARK   3    SUM OF OCCUPANCIES        :   NULL ;   NULL ;  NULL               
REMARK   3    UTILITY DISTANCES         :   NULL ;   NULL ;  NULL               
REMARK   3    UTILITY ANGLES            :   NULL ;   NULL ;  NULL               
REMARK   3    UTILITY TORSION           :   NULL ;   NULL ;  NULL               
REMARK   3    IDEAL-DIST CONTACT TERM   :   2895 ;   4.00 ;  SEMIHARMONIC       
REMARK   3                                                                      
REMARK   3   RMS DEVIATIONS FROM IDEAL VALUES.                                  
REMARK   3   BOND LENGTHS                       (A) : 0.012                     
REMARK   3   BOND ANGLES                  (DEGREES) : 1.24                      
REMARK   3   PEPTIDE OMEGA TORSION ANGLES (DEGREES) : 4.86                      
REMARK   3   OTHER TORSION ANGLES         (DEGREES) : 14.38                     
REMARK   3                                                                      
REMARK   3   SIMILARITY.                                                        
REMARK   3    NCS.                                                              
REMARK   3     NCS METHOD: RESTRAINT LSSR (-AUTONCS)                            
REMARK   3    TARGET RESTRAINTS.                                                
REMARK   3     TARGET REPRESENTATION : NONE                                     
REMARK   3     TARGET STRUCTURE : NULL                                          
REMARK   3                                                                      
REMARK   3  TLS DETAILS.                                                        
REMARK   3   NUMBER OF TLS GROUPS  :            2                               
REMARK   3                                                                      
REMARK   3   TLS GROUP :            1                                           
REMARK   3    SET : { A|* }                                                     
REMARK   3    ORIGIN FOR THE GROUP (A):    4.1561   21.2501   -0.5018           
REMARK   3    T TENSOR                                                          
REMARK   3     T11:   -0.0059 T22:   -0.0146                                    
REMARK   3     T33:   -0.0106 T12:   -0.0029                                    
REMARK   3     T13:   -0.0226 T23:    0.0069                                    
REMARK   3    L TENSOR                                                          
REMARK   3     L11:    0.6493 L22:    0.8860                                    
REMARK   3     L33:    0.0663 L12:   -0.2895                                    
REMARK   3     L13:    0.0427 L23:   -0.0400                                    
REMARK   3    S TENSOR                                                          
REMARK   3     S11:    0.0150 S12:   -0.0010 S13:   -0.0248                     
REMARK   3     S21:    0.0293 S22:   -0.0156 S23:   -0.0473                     
REMARK   3     S31:    0.0030 S32:   -0.0204 S33:    0.0006                     
REMARK   3                                                                      
REMARK   3   TLS GROUP :            2                                           
REMARK   3    SET : { B|* }                                                     
REMARK   3    ORIGIN FOR THE GROUP (A):   22.3500   43.2119   -7.6192           
REMARK   3    T TENSOR                                                          
REMARK   3     T11:   -0.0225 T22:   -0.0113                                    
REMARK   3     T33:   -0.0110 T12:    0.0069                                    
REMARK   3     T13:   -0.0054 T23:   -0.0031                                    
REMARK   3    L TENSOR                                                          
REMARK   3     L11:    1.0923 L22:    1.0223                                    
REMARK   3     L33:    0.1220 L12:   -0.2499                                    
REMARK   3     L13:   -0.2542 L23:    0.1485                                    
REMARK   3    S TENSOR                                                          
REMARK   3     S11:    0.0673 S12:   -0.0112 S13:   -0.0409                     
REMARK   3     S21:   -0.0136 S22:   -0.0499 S23:   -0.0876                     
REMARK   3     S31:   -0.0377 S32:   -0.0030 S33:   -0.0174                     
REMARK   3                                                                      
REMARK   3  REFINEMENT NOTES.                                                   
REMARK   3   NUMBER OF REFINEMENT NOTES :   1                                   
REMARK   3   NOTE   1 : IDEAL-DIST CONTACT TERM CONTACT SETUP. ALL ATOMS        
REMARK   3               HAVE CCP4 ATOM TYPE FROM LIBRARY                       
REMARK   3
REMARK   3  OTHER REFINEMENT REMARKS: NULL
REMARK   3
REMARK 290                                                            
REMARK 290 CRYSTALLOGRAPHIC SYMMETRY                                  
REMARK 290 SYMMETRY OPERATORS FOR SPACE GROUP: P 43                   
REMARK 290                                                            
REMARK 290      SYMOP   SYMMETRY                                      
REMARK 290     NNNMMM   OPERATOR                                      
REMARK 290       1555   X,Y,Z                                         
REMARK 290       2555   -X,-Y,1/2+Z                                   
REMARK 290       3555   -Y,X,3/4+Z                                    
REMARK 290       4555   Y,-X,1/4+Z                                    
REMARK 290                                                            
REMARK 290     WHERE NNN -> OPERATOR NUMBER                           
REMARK 290           MMM -> TRANSLATION VECTOR                        
REMARK 290                                                            
REMARK 290 CRYSTALLOGRAPHIC SYMMETRY TRANSFORMATIONS                  
REMARK 290 THE FOLLOWING TRANSFORMATIONS OPERATE ON THE ATOM/HETATM   
REMARK 290 RECORDS IN THIS ENTRY TO PRODUCE CRYSTALLOGRAPHICALLY      
REMARK 290 RELATED MOLECULES.                                         
REMARK 290   SMTRY1   1  1.000000  0.000000  0.000000        0.00000
REMARK 290   SMTRY2   1  0.000000  1.000000  0.000000        0.00000
REMARK 290   SMTRY3   1  0.000000  0.000000  1.000000        0.00000
REMARK 290   SMTRY1   2 -1.000000  0.000000  0.000000        0.00000
REMARK 290   SMTRY2   2  0.000000 -1.000000  0.000000        0.00000
REMARK 290   SMTRY3   2  0.000000  0.000000  1.000000       19.61700
REMARK 290   SMTRY1   3  0.000000 -1.000000  0.000000        0.00000
REMARK 290   SMTRY2   3  1.000000  0.000000  0.000000        0.00000
REMARK 290   SMTRY3   3  0.000000  0.000000  1.000000       29.42550
REMARK 290   SMTRY1   4  0.000000  1.000000  0.000000        0.00000
REMARK 290   SMTRY2   4 -1.000000  0.000000  0.000000        0.00000
REMARK 290   SMTRY3   4  0.000000  0.000000  1.000000        9.80850
REMARK 290                                                            
REMARK 290 REMARK: NULL                                               
REMARK 300
REMARK 300 BIOMOLECULE: 1, 2
REMARK 300 SEE REMARK 350 FOR THE AUTHOR PROVIDED AND/OR PROGRAM
REMARK 300 GENERATED ASSEMBLY INFORMATION FOR THE STRUCTURE IN
REMARK 300 THIS ENTRY. THE REMARK MAY ALSO  PROVIDE INFORMATION ON
REMARK 300 BURIED SURFACE AREA.
REMARK 350
REMARK 350 COORDINATES FOR A COMPLETE MULTIMER REPRESENTING THE KNOWN
REMARK 350 BIOLOGICALLY SIGNIFICANT OLIGOMERIZATION STATE OF THE
REMARK 350 MOLECULE CAN BE GENERATED BY APPLYING BIOMT TRANSFORMATIONS
REMARK 350 GIVEN BELOW. BOTH NON-CRYSTALLOGRAPHIC AND
REMARK 350 CRYSTALLOGRAPHIC OPERATIONS ARE GIVEN.
REMARK 350
REMARK 350 BIOMOLECULE: 1
REMARK 350 SOFTWARE DETERMINED QUATERNARY STRUCTURE: MONOMERIC
REMARK 350 SOFTWARE USED: PISA
REMARK 350 SURFACE AREA OF THE MONOMER: 7843 ANGSTROM**2
REMARK 350 FREE ENERGY OF FOLDING: -155.8 KCAL/MOL
REMARK 350 APPLY THE FOLLOWING TO CHAINS: A,W
REMARK 350   BIOMT1   1  1.000000  0.000000  0.000000        0.00000
REMARK 350   BIOMT2   1  0.000000  1.000000  0.000000        0.00000
REMARK 350   BIOMT3   1  0.000000  0.000000  1.000000        0.00000
REMARK 350
REMARK 350 BIOMOLECULE: 2
REMARK 350 SOFTWARE DETERMINED QUATERNARY STRUCTURE: MONOMERIC
REMARK 350 SOFTWARE USED: PISA
REMARK 350 SURFACE AREA OF THE MONOMER: 8067 ANGSTROM**2
REMARK 350 FREE ENERGY OF FOLDING: -157.1 KCAL/MOL
REMARK 350 APPLY THE FOLLOWING TO CHAINS: B,W
REMARK 350   BIOMT1   1  1.000000  0.000000  0.000000        0.00000
REMARK 350   BIOMT2   1  0.000000  1.000000  0.000000        0.00000
REMARK 350   BIOMT3   1  0.000000  0.000000  1.000000        0.00000
CRYST1   88.759   88.759   39.234  90.00  90.00  90.00 P 43                     


$$$$
SARS2_Mac1A-A0879
  PyMOL3.0          3D                             0

 24 26  0  0  0  0  0  0  0  0999 V2000
   -2.1270   15.1120   -2.8500 N   0  0  0  0  0  0  0  0  0  0  0  0
    0.9030   13.9610   -2.0330 C   0  0  0  0  0  0  0  0  0  0  0  0
    0.4720   13.9840   -0.8860 O   0  0  0  0  0  0  0  0  0  0  0  0
    0.1510   14.5360   -3.1780 C   0  0  0  0  0  0  0  0  0  0  0  0
   -6.5880   15.1660   -0.9110 N   0  0  0  0  0  0  0  0  0  0  0  0
    1.9800   13.3220   -2.4000 O   0  0  0  0  0  0  0  0  0  0  0  0
   -1.2510   13.9600   -3.0350 C   0  0  0  0  0  0  0  0  0  0  0  0
   -6.7730   15.1130    1.4830 N   0  0  0  0  0  0  0  0  0  0  0  0
   -3.9600   15.3010   -4.0690 O   0  0  0  0  0  0  0  0  0  0  0  0
   -3.4560   15.0990   -2.9790 C   0  0  0  0  0  0  0  0  0  0  0  0
   -4.2900   15.1190   -1.7300 C   0  0  0  0  0  0  0  0  0  0  0  0
   -5.6750   15.1630   -1.9030 C   0  0  0  0  0  0  0  0  0  0  0  0
   -6.0630   15.1510    0.3160 C   0  0  0  0  0  0  0  0  0  0  0  0
   -5.8800   15.1660    2.5280 C   0  0  0  0  0  0  0  0  0  0  0  0
   -4.6040   15.1930    2.0600 C   0  0  0  0  0  0  0  0  0  0  0  0
   -4.6830   15.1710    0.6380 C   0  0  0  0  0  0  0  0  0  0  0  0
   -3.7870   15.1340   -0.4280 C   0  0  0  0  0  0  0  0  0  0  0  0
   -1.5220   12.9230   -4.1190 C   0  0  0  0  0  0  0  0  0  0  0  0
   -2.3730   11.8900   -3.7710 C   0  0  0  0  0  0  0  0  0  0  0  0
   -2.3050   10.6560   -4.3910 C   0  0  0  0  0  0  0  0  0  0  0  0
   -1.3990   10.4550   -5.4030 C   0  0  0  0  0  0  0  0  0  0  0  0
   -0.5480   11.4730   -5.8040 C   0  0  0  0  0  0  0  0  0  0  0  0
   -0.6290   12.7060   -5.1700 C   0  0  0  0  0  0  0  0  0  0  0  0
   -1.3530    8.7600   -6.2750 Br  0  0  0  0  0  0  0  0  0  0  0  0
  1 10  1  0  0  0  0
  2  3  4  0  0  0  0
  2  6  4  0  0  0  0
  2  4  1  0  0  0  0
  5 12  4  0  0  0  0
  1  7  1  0  0  0  0
  4  7  1  0  0  0  0
  9 10  2  0  0  0  0
 10 11  1  0  0  0  0
 11 12  4  0  0  0  0
 11 17  4  0  0  0  0
  5 13  4  0  0  0  0
  8 13  4  0  0  0  0
  8 14  4  0  0  0  0
 14 15  4  0  0  0  0
 13 16  4  0  0  0  0
 15 16  4  0  0  0  0
 16 17  4  0  0  0  0
  7 18  1  0  0  0  0
 18 19  1  0  0  0  0
 19 20  1  0  0  0  0
 20 21  1  0  0  0  0
 21 22  1  0  0  0  0
 22 23  1  0  0  0  0
 18 23  1  0  0  0  0
 21 24  1  0  0  0  0
M  END
>  <pdb_header>
HEADER    ----                                    18-MAY-20                     
TITLE     ---                                                                   
EXPDTA    X-RAY DIFFRACTION                                                     
REMARK --------------------- added by autoBUSTER ---------------------------------START
REMARK run at   = Wed Feb 15 14:29:45 GMT 2023
REMARK     in   = /dls/labxchem/data/lb32627/lb32627-1/processing/analysis/model_building/SARS2_Mac1A-A0879
REMARK     user = dcn76311
REMARK     cmd  = \
REMARK            /dls_sw/apps/GPhL/BUSTER/20221121/autoBUSTER/bin/linux64/refine \
REMARK            -p \
REMARK            /dls/labxchem/data/lb32627/lb32627-1/processing/analysis/model_building/SARS2_Mac1A-A0879/cootOut/Refi
REMARK            -m \
REMARK            /dls/labxchem/data/lb32627/lb32627-1/processing/analysis/model_building/SARS2_Mac1A-A0879/SARS2_Mac1A-
REMARK            -l \
REMARK            /dls/labxchem/data/lb32627/lb32627-1/processing/analysis/model_building/SARS2_Mac1A-A0879/ASAP-0000670
REMARK            -autoncs -M TLSbasic -d Refine_6
REMARK Files used:
REMARK   PDB              = Refine_6/pdbchk.pdb
REMARK   MTZ              = /dls/labxchem/data/lb32627/lb32627-1/processing/analysis/model_building/SARS2_Mac1A-A0879/SA
REMARK output written to subdirectory = Refine_6
REMARK best refinement for F,SIGF with R/Rfree 0.2232/0.2554
REMARK header records are copied from input PDB file (apart from REMARK 3!)
REMARK --------------------- added by autoBUSTER -----------------------------------END
REMARK --------------------- added by autoBUSTER -------------------------------
REMARK run at   = Wed Feb 15 13:36:17 GMT 2023                                  
REMARK     in   = /dls/labxchem/data/lb32627/lb32627-1/processing/analysis/model
REMARK     user = dcn76311                                                      
REMARK     cmd  = \                                                             
REMARK            /dls_sw/apps/GPhL/BUSTER/20221121/autoBUSTER/bin/linux64/refin
REMARK            -p \                                                          
REMARK            /dls/labxchem/data/lb32627/lb32627-1/processing/analysis/model
REMARK            -m \                                                          
REMARK            /dls/labxchem/data/lb32627/lb32627-1/processing/analysis/model
REMARK            -l \                                                          
REMARK            /dls/labxchem/data/lb32627/lb32627-1/processing/analysis/model
REMARK            -autoncs -M TLSbasic -d Refine_5                              
REMARK Files used:                                                              
REMARK   PDB              = Refine_5/pdbchk.pdb                                 
REMARK   MTZ              = /dls/labxchem/data/lb32627/lb32627-1/processing/anal
REMARK output written to subdirectory = Refine_5                                
REMARK best refinement for F,SIGF with R/Rfree 0.2232/0.2563                    
REMARK header records are copied from input PDB file (apart from REMARK 3!)     
REMARK --------------------- added by autoBUSTER -------------------------------
REMARK --------------------- added by autoBUSTER -------------------------------
REMARK run at   = Wed Feb 15 10:27:38 GMT 2023                                  
REMARK     in   = /dls/labxchem/data/lb32627/lb32627-1/processing/analysis/model
REMARK     user = dcn76311                                                      
REMARK     cmd  = \                                                             
REMARK            /dls_sw/apps/GPhL/BUSTER/20221121/autoBUSTER/bin/linux64/refin
REMARK            -p \                                                          
REMARK            /dls/labxchem/data/lb32627/lb32627-1/processing/analysis/model
REMARK            -m \                                                          
REMARK            /dls/labxchem/data/lb32627/lb32627-1/processing/analysis/model
REMARK            -l \                                                          
REMARK            /dls/labxchem/data/lb32627/lb32627-1/processing/analysis/model
REMARK            -autoncs -M TLSbasic -d Refine_4                              
REMARK Files used:                                                              
REMARK   PDB              = Refine_4/pdbchk.pdb                                 
REMARK   MTZ              = /dls/labxchem/data/lb32627/lb32627-1/processing/anal
REMARK output written to subdirectory = Refine_4                                
REMARK best refinement for F,SIGF with R/Rfree 0.2224/0.2553                    
REMARK header records are copied from input PDB file (apart from REMARK 3!)     
REMARK --------------------- added by autoBUSTER -------------------------------
REMARK --------------------- added by autoBUSTER -------------------------------
REMARK run at   = Wed Feb 15 09:06:54 GMT 2023                                  
REMARK     in   = /dls/labxchem/data/lb32627/lb32627-1/processing/analysis/model
REMARK     user = dcn76311                                                      
REMARK     cmd  = \                                                             
REMARK            /dls_sw/apps/GPhL/BUSTER/20221121/autoBUSTER/bin/linux64/refin
REMARK            -p \                                                          
REMARK            /dls/labxchem/data/lb32627/lb32627-1/processing/analysis/model
REMARK            -m \                                                          
REMARK            /dls/labxchem/data/lb32627/lb32627-1/processing/analysis/model
REMARK            -l \                                                          
REMARK            /dls/labxchem/data/lb32627/lb32627-1/processing/analysis/model
REMARK            -autoncs -M TLSbasic -d Refine_3                              
REMARK Files used:                                                              
REMARK   PDB              = Refine_3/pdbchk.pdb                                 
REMARK   MTZ              = /dls/labxchem/data/lb32627/lb32627-1/processing/anal
REMARK output written to subdirectory = Refine_3                                
REMARK best refinement for F,SIGF with R/Rfree 0.2224/0.2564                    
REMARK header records are copied from input PDB file (apart from REMARK 3!)     
REMARK --------------------- added by autoBUSTER -------------------------------
REMARK --------------------- added by autoBUSTER -------------------------------
REMARK run at   = Tue Feb  7 10:30:59 GMT 2023                                  
REMARK     in   = /dls/labxchem/data/lb32627/lb32627-1/processing/analysis/model
REMARK     user = dcn76311                                                      
REMARK     cmd  = \                                                             
REMARK            /dls_sw/apps/GPhL/BUSTER/20221121/autoBUSTER/bin/linux64/refin
REMARK            -p \                                                          
REMARK            /dls/labxchem/data/lb32627/lb32627-1/processing/analysis/model
REMARK            -m \                                                          
REMARK            /dls/labxchem/data/lb32627/lb32627-1/processing/analysis/model
REMARK            -l \                                                          
REMARK            /dls/labxchem/data/lb32627/lb32627-1/processing/analysis/model
REMARK            -autoncs -M TLSbasic -d Refine_2                              
REMARK Files used:                                                              
REMARK   PDB              = Refine_2/pdbchk.pdb                                 
REMARK   MTZ              = /dls/labxchem/data/lb32627/lb32627-1/processing/anal
REMARK output written to subdirectory = Refine_2                                
REMARK best refinement for F,SIGF with R/Rfree 0.2230/0.2560                    
REMARK header records are copied from input PDB file (apart from REMARK 3!)     
REMARK --------------------- added by autoBUSTER -------------------------------
REMARK --------------------- added by autoBUSTER -------------------------------
REMARK run at   = Fri Feb  3 08:24:22 GMT 2023                                  
REMARK     in   = /dls/labxchem/data/lb32627/lb32627-1/processing/analysis/model
REMARK     user = dcn76311                                                      
REMARK     cmd  = \                                                             
REMARK            /dls_sw/apps/GPhL/BUSTER/20221121/autoBUSTER/bin/linux64/refin
REMARK            -p \                                                          
REMARK            /dls/labxchem/data/lb32627/lb32627-1/processing/analysis/model
REMARK            -m \                                                          
REMARK            /dls/labxchem/data/lb32627/lb32627-1/processing/analysis/model
REMARK            -l \                                                          
REMARK            /dls/labxchem/data/lb32627/lb32627-1/processing/analysis/model
REMARK            -autoncs -M TLSbasic -d Refine_1                              
REMARK Files used:                                                              
REMARK   PDB              = Refine_1/pdbchk.pdb                                 
REMARK   MTZ              = /dls/labxchem/data/lb32627/lb32627-1/processing/anal
REMARK output written to subdirectory = Refine_1                                
REMARK best refinement for F,SIGF with R/Rfree 0.2229/0.2590                    
REMARK header records are copied from input PDB file (apart from REMARK 3!)     
REMARK --------------------- added by autoBUSTER -------------------------------
REMARK   2                                                            
REMARK   2 RESOLUTION.    1.25 ANGSTROMS.
REMARK   3
REMARK   3 REFINEMENT.
REMARK   3   PROGRAM     : BUSTER 2.10.4 (21-NOV-2022)
REMARK   3   AUTHORS     : BRICOGNE,BLANC,BRANDL,FLENSBURG,KELLER,
REMARK   3               : PACIOREK,ROVERSI,SHARFF,SMART,VONRHEIN,WOMACK;
REMARK   3               : MATTHEWS,TEN EYCK,TRONRUD
REMARK   3
REMARK   3  DATA USED IN REFINEMENT.
REMARK   3   RESOLUTION RANGE HIGH (ANGSTROMS) : 1.250
REMARK   3   RESOLUTION RANGE LOW  (ANGSTROMS) : 24.71
REMARK   3   DATA CUTOFF            (SIGMA(F)) : 0.000
REMARK   3   COMPLETENESS FOR RANGE        (%) : 86.3
REMARK   3   NUMBER OF REFLECTIONS             : 74015
REMARK   3
REMARK   3  FIT TO DATA USED IN REFINEMENT.
REMARK   3   CROSS-VALIDATION METHOD          : THROUGHOUT
REMARK   3   FREE R VALUE TEST SET SELECTION  : RANDOM
REMARK   3   R VALUE     (WORKING + TEST SET) : 0.2248
REMARK   3   R VALUE            (WORKING SET) : 0.2232
REMARK   3   FREE R VALUE                     : 0.2554
REMARK   3   FREE R VALUE TEST SET SIZE   (%) : 4.940
REMARK   3   FREE R VALUE TEST SET COUNT      : 3655
REMARK   3   ESTIMATED ERROR OF FREE R VALUE  : NULL
REMARK   3
REMARK   3  FIT IN THE HIGHEST RESOLUTION BIN.
REMARK   3   TOTAL NUMBER OF BINS USED           : 51
REMARK   3   BIN RESOLUTION RANGE HIGH       (A) : 1.25
REMARK   3   BIN RESOLUTION RANGE LOW        (A) : 1.27
REMARK   3   BIN COMPLETENESS (WORKING+TEST) (%) : 33.80
REMARK   3   REFLECTIONS IN BIN   (WORKING+TEST) : 1481
REMARK   3   BIN R VALUE          (WORKING+TEST) : 0.7401
REMARK   3   REFLECTIONS IN BIN    (WORKING SET) : 1415
REMARK   3   BIN R VALUE           (WORKING SET) : 0.7380
REMARK   3   BIN FREE R VALUE                    : 0.7772
REMARK   3   BIN FREE R VALUE TEST SET SIZE  (%) : 4.46
REMARK   3   BIN FREE R VALUE TEST SET COUNT     : 66
REMARK   3   ESTIMATED ERROR OF BIN FREE R VALUE : NULL
REMARK   3
REMARK   3  NUMBER OF NON-HYDROGEN ATOMS USED IN REFINEMENT.
REMARK   3   PROTEIN ATOMS            : 2519
REMARK   3   NUCLEIC ACID ATOMS       : 0
REMARK   3   HETEROGEN ATOMS          : 24
REMARK   3   SOLVENT ATOMS            : 410
REMARK   3
REMARK   3  B VALUES.
REMARK   3   FROM WILSON PLOT           (A**2) : 13.21
REMARK   3   MEAN B VALUE      (OVERALL, A**2) : 21.25
REMARK   3   OVERALL ANISOTROPIC B VALUE.
REMARK   3    B11 (A**2) : 1.93920
REMARK   3    B22 (A**2) : 1.93920
REMARK   3    B33 (A**2) : -3.87840
REMARK   3    B12 (A**2) : 0.00000
REMARK   3    B13 (A**2) : 0.00000
REMARK   3    B23 (A**2) : 0.00000
REMARK   3
REMARK   3  ESTIMATED COORDINATE ERROR.
REMARK   3   ESD FROM LUZZATI PLOT                    (A) : 0.27
REMARK   3   DPI (BLOW EQ-10) BASED ON R VALUE        (A) : 0.068
REMARK   3   DPI (BLOW EQ-9) BASED ON FREE R VALUE    (A) : 0.071
REMARK   3   DPI (CRUICKSHANK) BASED ON R VALUE       (A) : 0.064
REMARK   3   DPI (CRUICKSHANK) BASED ON FREE R VALUE  (A) : 0.067
REMARK   3
REMARK   3   REFERENCES: BLOW, D. (2002) ACTA CRYST D58, 792-797
REMARK   3               CRUICKSHANK, D.W.J. (1999) ACTA CRYST D55, 583-601
REMARK   3
REMARK   3  CORRELATION COEFFICIENTS.
REMARK   3   CORRELATION COEFFICIENT FO-FC      : 0.952
REMARK   3   CORRELATION COEFFICIENT FO-FC FREE : 0.943
REMARK   3
REMARK   3  X-RAY WEIGHT : 7.37
REMARK   3
REMARK   3  GEOMETRY FUNCTION.                                                  
REMARK   3   RESTRAINT LIBRARIES.                                               
REMARK   3    NUMBER OF LIBRARIES USED :   8                                    
REMARK   3    LIBRARY  1 : protgeo_eh99.dat (V1.6.4.20) 20220523  STANDARD      
REMARK   3                 AMINO ACID DICTIONARY. BONDS AND ANGLES FROM         
REMARK   3                 ENGH AND HUBER EH99. OTHER VALUES BASED ON           
REMARK   3                 PREVIOUS TNT OR TAKEN FROM CCP4. INCLUDES            
REMARK   3                 HYDROGEN ATOMS.                                      
REMARK   3    LIBRARY  2 : exoticaa.dat (V1.3.4.16) 20220523  COLLECTION        
REMARK   3                 OF NON-STANDARD AMINO ACIDS, MAINLY EH91             
REMARK   3                 WITHOUT IDEAL DISTANCE INFO                          
REMARK   3    LIBRARY  3 : nuclgeo.dat (V1.13.4.9) 20221011                     
REMARK   3    LIBRARY  4 : bcorrel.dat (V1.15.10.2) 20190616                    
REMARK   3    LIBRARY  5 : contact.dat (V1.15.12.10) 20191121                   
REMARK   3    LIBRARY  6 : idealdist_contact.dat (V1.3.4.13) 20220125           
REMARK   3                 IDEAL-DISTANCE CONTACT TERM DATA AS USED IN          
REMARK   3                 PROLSQ. VALUES USED HERE ARE BASED ON DATA           
REMARK   3                 HARVESTING OF PDB AS OF 20190109.                    
REMARK   3    LIBRARY  7 : restraints for LIG (unknown) from cif                
REMARK   3                 dictionary ASAP-0000670-001.cif; generated by        
REMARK   3                 GRADE 1.2.21 (Feb 03 2022) from SMILES               
REMARK   3                 O=C(O)C[C@@H](NC(=O)c1cnc2[nH]ccc2c1)c1ccc(Br)cc     
REMARK   3                 1 using MOGUL 1.8.5(274361), CSD as541be, with       
REMARK   3                 quantum mechanics RM1                                
REMARK   3    LIBRARY  8 : assume.dat (V1.9.4.3) 20221011                       
REMARK   3                                                                      
REMARK   3   NUMBER OF GEOMETRIC FUNCTION TERMS DEFINED : 15                    
REMARK   3   TERM                          COUNT    WEIGHT   FUNCTION.          
REMARK   3    BOND LENGTHS              :   2655 ;   2.00 ;  HARMONIC           
REMARK   3    BOND ANGLES               :   3625 ;   2.00 ;  HARMONIC           
REMARK   3    TORSION ANGLES            :    911 ;   2.00 ;  SINUSOIDAL         
REMARK   3    TRIGONAL CARBON PLANES    :   NULL ;   NULL ;  NULL               
REMARK   3    GENERAL PLANES            :    485 ;   5.00 ;  HARMONIC           
REMARK   3    ISOTROPIC THERMAL FACTORS :   2655 ;  10.00 ;  HARMONIC           
REMARK   3    BAD NON-BONDED CONTACTS   :   NULL ;   NULL ;  NULL               
REMARK   3    IMPROPER TORSIONS         :   NULL ;   NULL ;  NULL               
REMARK   3    PSEUDOROTATION ANGLES     :   NULL ;   NULL ;  NULL               
REMARK   3    CHIRAL IMPROPER TORSION   :    342 ;   5.00 ;  SEMIHARMONIC       
REMARK   3    SUM OF OCCUPANCIES        :   NULL ;   NULL ;  NULL               
REMARK   3    UTILITY DISTANCES         :   NULL ;   NULL ;  NULL               
REMARK   3    UTILITY ANGLES            :   NULL ;   NULL ;  NULL               
REMARK   3    UTILITY TORSION           :   NULL ;   NULL ;  NULL               
REMARK   3    IDEAL-DIST CONTACT TERM   :   2677 ;   4.00 ;  SEMIHARMONIC       
REMARK   3                                                                      
REMARK   3   RMS DEVIATIONS FROM IDEAL VALUES.                                  
REMARK   3   BOND LENGTHS                       (A) : 0.012                     
REMARK   3   BOND ANGLES                  (DEGREES) : 1.14                      
REMARK   3   PEPTIDE OMEGA TORSION ANGLES (DEGREES) : 4.27                      
REMARK   3   OTHER TORSION ANGLES         (DEGREES) : 14.65                     
REMARK   3                                                                      
REMARK   3   SIMILARITY.                                                        
REMARK   3    NCS.                                                              
REMARK   3     NCS METHOD: RESTRAINT LSSR (-AUTONCS)                            
REMARK   3    TARGET RESTRAINTS.                                                
REMARK   3     TARGET REPRESENTATION : NONE                                     
REMARK   3     TARGET STRUCTURE : NULL                                          
REMARK   3                                                                      
REMARK   3  TLS DETAILS.                                                        
REMARK   3   NUMBER OF TLS GROUPS  :            2                               
REMARK   3                                                                      
REMARK   3   TLS GROUP :            1                                           
REMARK   3    SET : { A|* }                                                     
REMARK   3    ORIGIN FOR THE GROUP (A):    4.1570   21.3355   -0.4183           
REMARK   3    T TENSOR                                                          
REMARK   3     T11:   -0.0174 T22:   -0.0292                                    
REMARK   3     T33:    0.0333 T12:   -0.0035                                    
REMARK   3     T13:   -0.0297 T23:    0.0090                                    
REMARK   3    L TENSOR                                                          
REMARK   3     L11:    0.8510 L22:    0.7979                                    
REMARK   3     L33:    0.0456 L12:   -0.3473                                    
REMARK   3     L13:    0.1197 L23:   -0.0723                                    
REMARK   3    S TENSOR                                                          
REMARK   3     S11:    0.0479 S12:   -0.0107 S13:   -0.0488                     
REMARK   3     S21:    0.0264 S22:   -0.0376 S23:   -0.0485                     
REMARK   3     S31:   -0.0121 S32:   -0.0214 S33:   -0.0103                     
REMARK   3                                                                      
REMARK   3   TLS GROUP :            2                                           
REMARK   3    SET : { B|* }                                                     
REMARK   3    ORIGIN FOR THE GROUP (A):   22.4267   43.2785   -7.7866           
REMARK   3    T TENSOR                                                          
REMARK   3     T11:   -0.0341 T22:   -0.0215                                    
REMARK   3     T33:    0.0212 T12:    0.0072                                    
REMARK   3     T13:   -0.0074 T23:    0.0004                                    
REMARK   3    L TENSOR                                                          
REMARK   3     L11:    1.0692 L22:    1.1690                                    
REMARK   3     L33:    0.1668 L12:   -0.1799                                    
REMARK   3     L13:   -0.2906 L23:    0.1145                                    
REMARK   3    S TENSOR                                                          
REMARK   3     S11:    0.0548 S12:   -0.0115 S13:   -0.0337                     
REMARK   3     S21:   -0.0208 S22:   -0.0379 S23:   -0.0815                     
REMARK   3     S31:   -0.0370 S32:    0.0138 S33:   -0.0169                     
REMARK   3                                                                      
REMARK   3  REFINEMENT NOTES.                                                   
REMARK   3   NUMBER OF REFINEMENT NOTES :   1                                   
REMARK   3   NOTE   1 : IDEAL-DIST CONTACT TERM CONTACT SETUP. ALL ATOMS        
REMARK   3               HAVE CCP4 ATOM TYPE FROM LIBRARY                       
REMARK   3
REMARK   3  OTHER REFINEMENT REMARKS: NULL
REMARK   3
REMARK 290                                                            
REMARK 290 CRYSTALLOGRAPHIC SYMMETRY                                  
REMARK 290 SYMMETRY OPERATORS FOR SPACE GROUP: P 43                   
REMARK 290                                                            
REMARK 290      SYMOP   SYMMETRY                                      
REMARK 290     NNNMMM   OPERATOR                                      
REMARK 290       1555   X,Y,Z                                         
REMARK 290       2555   -X,-Y,1/2+Z                                   
REMARK 290       3555   -Y,X,3/4+Z                                    
REMARK 290       4555   Y,-X,1/4+Z                                    
REMARK 290                                                            
REMARK 290     WHERE NNN -> OPERATOR NUMBER                           
REMARK 290           MMM -> TRANSLATION VECTOR                        
REMARK 290                                                            
REMARK 290 CRYSTALLOGRAPHIC SYMMETRY TRANSFORMATIONS                  
REMARK 290 THE FOLLOWING TRANSFORMATIONS OPERATE ON THE ATOM/HETATM   
REMARK 290 RECORDS IN THIS ENTRY TO PRODUCE CRYSTALLOGRAPHICALLY      
REMARK 290 RELATED MOLECULES.                                         
REMARK 290   SMTRY1   1  1.000000  0.000000  0.000000        0.00000
REMARK 290   SMTRY2   1  0.000000  1.000000  0.000000        0.00000
REMARK 290   SMTRY3   1  0.000000  0.000000  1.000000        0.00000
REMARK 290   SMTRY1   2 -1.000000  0.000000  0.000000        0.00000
REMARK 290   SMTRY2   2  0.000000 -1.000000  0.000000        0.00000
REMARK 290   SMTRY3   2  0.000000  0.000000  1.000000       19.68750
REMARK 290   SMTRY1   3  0.000000 -1.000000  0.000000        0.00000
REMARK 290   SMTRY2   3  1.000000  0.000000  0.000000        0.00000
REMARK 290   SMTRY3   3  0.000000  0.000000  1.000000       29.53125
REMARK 290   SMTRY1   4  0.000000  1.000000  0.000000        0.00000
REMARK 290   SMTRY2   4 -1.000000  0.000000  0.000000        0.00000
REMARK 290   SMTRY3   4  0.000000  0.000000  1.000000        9.84375
REMARK 290                                                            
REMARK 290 REMARK: NULL                                               
REMARK 300
REMARK 300 BIOMOLECULE: 1, 2
REMARK 300 SEE REMARK 350 FOR THE AUTHOR PROVIDED AND/OR PROGRAM
REMARK 300 GENERATED ASSEMBLY INFORMATION FOR THE STRUCTURE IN
REMARK 300 THIS ENTRY. THE REMARK MAY ALSO  PROVIDE INFORMATION ON
REMARK 300 BURIED SURFACE AREA.
REMARK 350
REMARK 350 COORDINATES FOR A COMPLETE MULTIMER REPRESENTING THE KNOWN
REMARK 350 BIOLOGICALLY SIGNIFICANT OLIGOMERIZATION STATE OF THE
REMARK 350 MOLECULE CAN BE GENERATED BY APPLYING BIOMT TRANSFORMATIONS
REMARK 350 GIVEN BELOW. BOTH NON-CRYSTALLOGRAPHIC AND
REMARK 350 CRYSTALLOGRAPHIC OPERATIONS ARE GIVEN.
REMARK 350
REMARK 350 BIOMOLECULE: 1
REMARK 350 SOFTWARE DETERMINED QUATERNARY STRUCTURE: MONOMERIC
REMARK 350 SOFTWARE USED: PISA
REMARK 350 SURFACE AREA OF THE MONOMER: 7781 ANGSTROM**2
REMARK 350 FREE ENERGY OF FOLDING: -156.5 KCAL/MOL
REMARK 350 APPLY THE FOLLOWING TO CHAINS: A,W
REMARK 350   BIOMT1   1  1.000000  0.000000  0.000000        0.00000
REMARK 350   BIOMT2   1  0.000000  1.000000  0.000000        0.00000
REMARK 350   BIOMT3   1  0.000000  0.000000  1.000000        0.00000
REMARK 350
REMARK 350 BIOMOLECULE: 2
REMARK 350 SOFTWARE DETERMINED QUATERNARY STRUCTURE: MONOMERIC
REMARK 350 SOFTWARE USED: PISA
REMARK 350 SURFACE AREA OF THE MONOMER: 8098 ANGSTROM**2
REMARK 350 FREE ENERGY OF FOLDING: -156.2 KCAL/MOL
REMARK 350 APPLY THE FOLLOWING TO CHAINS: B,W
REMARK 350   BIOMT1   1  1.000000  0.000000  0.000000        0.00000
REMARK 350   BIOMT2   1  0.000000  1.000000  0.000000        0.00000
REMARK 350   BIOMT3   1  0.000000  0.000000  1.000000        0.00000
CRYST1   89.097   89.097   39.375  90.00  90.00  90.00 P 43                     


$$$$
SARS2_Mac1A-A1013
  PyMOL3.0          3D                             0

 24 27  0  0  0  0  0  0  0  0999 V2000
   -0.3990   11.8330   -5.1810 N   0  0  0  0  0  0  0  0  0  0  0  0
    0.4530   12.2490   -2.9290 C   0  0  0  0  0  0  0  0  0  0  0  0
    0.0840   11.1360   -2.5940 O   0  0  0  0  0  0  0  0  0  0  0  0
    0.3650   12.7560   -4.3660 C   0  0  0  0  0  0  0  0  0  0  0  0
    1.0890   11.8660   -6.9600 N   0  0  0  0  0  0  0  0  0  0  0  0
    0.9880   13.1220   -2.1100 O   0  0  0  0  0  0  0  0  0  0  0  0
    0.0530   11.2770   -6.3230 C   0  0  0  0  0  0  0  0  0  0  0  0
    1.0240   10.2080   -8.7110 N   0  0  0  0  0  0  0  0  0  0  0  0
    0.9500   17.5950   -4.6550 O   0  0  0  0  0  0  0  0  0  0  0  0
    1.4940   11.3040   -8.1060 C   0  0  0  0  0  0  0  0  0  0  0  0
   -0.5460    8.4080   -8.3250 N   0  0  0  0  0  0  0  0  0  0  0  0
   -1.8970   17.9330   -4.9380 O   0  0  0  0  0  0  0  0  0  0  0  0
    0.0180    9.6200   -8.0360 C   0  0  0  0  0  0  0  0  0  0  0  0
   -1.4410    8.1060   -7.3260 C   0  0  0  0  0  0  0  0  0  0  0  0
   -1.4720    9.1030   -6.4050 C   0  0  0  0  0  0  0  0  0  0  0  0
   -0.5460   10.0920   -6.8430 C   0  0  0  0  0  0  0  0  0  0  0  0
   -0.2390   14.1530   -4.4260 C   0  0  0  0  0  0  0  0  0  0  0  0
   -1.6160   14.3370   -4.5000 C   0  0  0  0  0  0  0  0  0  0  0  0
   -2.1660   15.6000   -4.6440 C   0  0  0  0  0  0  0  0  0  0  0  0
   -1.3280   16.7040   -4.7090 C   0  0  0  0  0  0  0  0  0  0  0  0
    0.0720   16.5320   -4.6040 C   0  0  0  0  0  0  0  0  0  0  0  0
    0.6010   15.2620   -4.4660 C   0  0  0  0  0  0  0  0  0  0  0  0
    0.4850   18.7310   -5.4370 C   0  0  0  0  0  0  0  0  0  0  0  0
   -1.0870   18.7790   -5.7770 C   0  0  0  0  0  0  0  0  0  0  0  0
  1  7  1  0  0  0  0
  2  4  1  0  0  0  0
  2  6  4  0  0  0  0
  2  3  4  0  0  0  0
  1  4  1  0  0  0  0
  4 17  1  0  0  0  0
  5  7  4  0  0  0  0
  7 16  4  0  0  0  0
  8 10  4  0  0  0  0
  9 23  1  0  0  0  0
  5 10  4  0  0  0  0
 11 13  4  0  0  0  0
 12 20  1  0  0  0  0
  8 13  4  0  0  0  0
 11 14  4  0  0  0  0
 14 15  4  0  0  0  0
 13 16  4  0  0  0  0
 15 16  4  0  0  0  0
 17 18  4  0  0  0  0
 17 22  4  0  0  0  0
 18 19  4  0  0  0  0
 19 20  4  0  0  0  0
  9 21  1  0  0  0  0
 20 21  4  0  0  0  0
 21 22  4  0  0  0  0
 23 24  1  0  0  0  0
 12 24  1  0  0  0  0
M  END
>  <pdb_header>
REMARK --------------------- added by autoBUSTER ---------------------------------START
REMARK run at   = Fri Feb 10 13:09:23 GMT 2023
REMARK     in   = /dls/labxchem/data/lb32627/lb32627-1/processing/analysis/model_building/SARS2_Mac1A-A1013
REMARK     user = dcn76311
REMARK     cmd  = \
REMARK            /dls_sw/apps/GPhL/BUSTER/20221121/autoBUSTER/bin/linux64/refine \
REMARK            -p \
REMARK            /dls/labxchem/data/lb32627/lb32627-1/processing/analysis/model_building/SARS2_Mac1A-A1013/cootOut/Refine_9/in.pdb \
REMARK            -m \
REMARK            /dls/labxchem/data/lb32627/lb32627-1/processing/analysis/model_building/SARS2_Mac1A-A1013/SARS2_Mac1A-A1013.free.mtz \
REMARK            -l \
REMARK            /dls/labxchem/data/lb32627/lb32627-1/processing/analysis/model_building/SARS2_Mac1A-A1013/ASAP-0000789-001.cif \
REMARK            -autoncs -M TLSbasic -d Refine_9
REMARK Files used:
REMARK   PDB              = Refine_9/pdbchk.pdb
REMARK   MTZ              = /dls/labxchem/data/lb32627/lb32627-1/processing/analysis/model_building/SARS2_Mac1A-A1013/SARS2_Mac1A-A1013.free.mtz
REMARK output written to subdirectory = Refine_9
REMARK best refinement for F,SIGF with R/Rfree 0.2282/0.2770
REMARK header records are copied from input PDB file (apart from REMARK 3!)
REMARK --------------------- added by autoBUSTER -----------------------------------END
REMARK --------------------- added by autoBUSTER -------------------------------
REMARK run at   = Fri Feb 10 11:57:43 GMT 2023                                  
REMARK     in   = /dls/labxchem/data/lb32627/lb32627-1/processing/analysis/model
REMARK     user = dcn76311                                                      
REMARK     cmd  = \                                                             
REMARK            /dls_sw/apps/GPhL/BUSTER/20221121/autoBUSTER/bin/linux64/refin
REMARK            -p \                                                          
REMARK            /dls/labxchem/data/lb32627/lb32627-1/processing/analysis/model
REMARK            -m \                                                          
REMARK            /dls/labxchem/data/lb32627/lb32627-1/processing/analysis/model
REMARK            -l \                                                          
REMARK            /dls/labxchem/data/lb32627/lb32627-1/processing/analysis/model
REMARK            -autoncs -M TLSbasic -d Refine_8                              
REMARK Files used:                                                              
REMARK   PDB              = Refine_8/pdbchk.pdb                                 
REMARK   MTZ              = /dls/labxchem/data/lb32627/lb32627-1/processing/anal
REMARK output written to subdirectory = Refine_8                                
REMARK best refinement for F,SIGF with R/Rfree 0.2292/0.2772                    
REMARK header records are copied from input PDB file (apart from REMARK 3!)     
REMARK --------------------- added by autoBUSTER -------------------------------
REMARK --------------------- added by autoBUSTER -------------------------------
REMARK run at   = Fri Feb 10 11:41:13 GMT 2023                                  
REMARK     in   = /dls/labxchem/data/lb32627/lb32627-1/processing/analysis/model
REMARK     user = dcn76311                                                      
REMARK     cmd  = \                                                             
REMARK            /dls_sw/apps/GPhL/BUSTER/20221121/autoBUSTER/bin/linux64/refin
REMARK            -p \                                                          
REMARK            /dls/labxchem/data/lb32627/lb32627-1/processing/analysis/model
REMARK            -m \                                                          
REMARK            /dls/labxchem/data/lb32627/lb32627-1/processing/analysis/model
REMARK            -l \                                                          
REMARK            /dls/labxchem/data/lb32627/lb32627-1/processing/analysis/model
REMARK            -autoncs -M TLSbasic -d Refine_7                              
REMARK Files used:                                                              
REMARK   PDB              = Refine_7/pdbchk.pdb                                 
REMARK   MTZ              = /dls/labxchem/data/lb32627/lb32627-1/processing/anal
REMARK output written to subdirectory = Refine_7                                
REMARK best refinement for F,SIGF with R/Rfree 0.2279/0.2770                    
REMARK header records are copied from input PDB file (apart from REMARK 3!)     
REMARK --------------------- added by autoBUSTER -------------------------------
REMARK --------------------- added by autoBUSTER -------------------------------
REMARK run at   = Thu Feb  9 14:47:07 GMT 2023                                  
REMARK     in   = /dls/labxchem/data/lb32627/lb32627-1/processing/analysis/model
REMARK     user = dcn76311                                                      
REMARK     cmd  = \                                                             
REMARK            /dls_sw/apps/GPhL/BUSTER/20221121/autoBUSTER/bin/linux64/refin
REMARK            -p \                                                          
REMARK            /dls/labxchem/data/lb32627/lb32627-1/processing/analysis/model
REMARK            -m \                                                          
REMARK            /dls/labxchem/data/lb32627/lb32627-1/processing/analysis/model
REMARK            -l \                                                          
REMARK            /dls/labxchem/data/lb32627/lb32627-1/processing/analysis/model
REMARK            -autoncs -M TLSbasic -d Refine_6                              
REMARK Files used:                                                              
REMARK   PDB              = Refine_6/pdbchk.pdb                                 
REMARK   MTZ              = /dls/labxchem/data/lb32627/lb32627-1/processing/anal
REMARK output written to subdirectory = Refine_6                                
REMARK best refinement for F,SIGF with R/Rfree 0.2280/0.2769                    
REMARK header records are copied from input PDB file (apart from REMARK 3!)     
REMARK --------------------- added by autoBUSTER -------------------------------
REMARK --------------------- added by autoBUSTER -------------------------------
REMARK run at   = Thu Feb  9 12:58:43 GMT 2023                                  
REMARK     in   = /dls/labxchem/data/lb32627/lb32627-1/processing/analysis/model
REMARK     user = dcn76311                                                      
REMARK     cmd  = \                                                             
REMARK            /dls_sw/apps/GPhL/BUSTER/20221121/autoBUSTER/bin/linux64/refin
REMARK            -p \                                                          
REMARK            /dls/labxchem/data/lb32627/lb32627-1/processing/analysis/model
REMARK            -m \                                                          
REMARK            /dls/labxchem/data/lb32627/lb32627-1/processing/analysis/model
REMARK            -l \                                                          
REMARK            /dls/labxchem/data/lb32627/lb32627-1/processing/analysis/model
REMARK            -autoncs -M TLSbasic -d Refine_5                              
REMARK Files used:                                                              
REMARK   PDB              = Refine_5/pdbchk.pdb                                 
REMARK   MTZ              = /dls/labxchem/data/lb32627/lb32627-1/processing/anal
REMARK output written to subdirectory = Refine_5                                
REMARK best refinement for F,SIGF with R/Rfree 0.2293/0.2781                    
REMARK header records are copied from input PDB file (apart from REMARK 3!)     
REMARK --------------------- added by autoBUSTER -------------------------------
REMARK --------------------- added by autoBUSTER -------------------------------
REMARK run at   = Thu Feb  9 11:18:51 GMT 2023                                  
REMARK     in   = /dls/labxchem/data/lb32627/lb32627-1/processing/analysis/model
REMARK     user = dcn76311                                                      
REMARK     cmd  = \                                                             
REMARK            /dls_sw/apps/GPhL/BUSTER/20221121/autoBUSTER/bin/linux64/refin
REMARK            -p \                                                          
REMARK            /dls/labxchem/data/lb32627/lb32627-1/processing/analysis/model
REMARK            -m \                                                          
REMARK            /dls/labxchem/data/lb32627/lb32627-1/processing/analysis/model
REMARK            -l \                                                          
REMARK            /dls/labxchem/data/lb32627/lb32627-1/processing/analysis/model
REMARK            -autoncs -M TLSbasic -d Refine_4                              
REMARK Files used:                                                              
REMARK   PDB              = Refine_4/pdbchk.pdb                                 
REMARK   MTZ              = /dls/labxchem/data/lb32627/lb32627-1/processing/anal
REMARK output written to subdirectory = Refine_4                                
REMARK best refinement for F,SIGF with R/Rfree 0.2248/0.2814                    
REMARK header records are copied from input PDB file (apart from REMARK 3!)     
REMARK --------------------- added by autoBUSTER -------------------------------
REMARK --------------------- added by autoBUSTER -------------------------------
REMARK run at   = Wed Feb  8 12:59:37 GMT 2023                                  
REMARK     in   = /dls/labxchem/data/lb32627/lb32627-1/processing/analysis/model
REMARK     user = dcn76311                                                      
REMARK     cmd  = \                                                             
REMARK            /dls_sw/apps/GPhL/BUSTER/20221121/autoBUSTER/bin/linux64/refin
REMARK            -p \                                                          
REMARK            /dls/labxchem/data/lb32627/lb32627-1/processing/analysis/model
REMARK            -m \                                                          
REMARK            /dls/labxchem/data/lb32627/lb32627-1/processing/analysis/model
REMARK            -l \                                                          
REMARK            /dls/labxchem/data/lb32627/lb32627-1/processing/analysis/model
REMARK            -autoncs -M TLSbasic -d Refine_3                              
REMARK Files used:                                                              
REMARK   PDB              = Refine_3/pdbchk.pdb                                 
REMARK   MTZ              = /dls/labxchem/data/lb32627/lb32627-1/processing/anal
REMARK output written to subdirectory = Refine_3                                
REMARK best refinement for F,SIGF with R/Rfree 0.2261/0.2811                    
REMARK header records are copied from input PDB file (apart from REMARK 3!)     
REMARK --------------------- added by autoBUSTER -------------------------------
REMARK --------------------- added by autoBUSTER -------------------------------
REMARK run at   = Wed Feb  8 09:12:02 GMT 2023                                  
REMARK     in   = /dls/labxchem/data/lb32627/lb32627-1/processing/analysis/model
REMARK     user = dcn76311                                                      
REMARK     cmd  = \                                                             
REMARK            /dls_sw/apps/GPhL/BUSTER/20221121/autoBUSTER/bin/linux64/refin
REMARK            -p \                                                          
REMARK            /dls/labxchem/data/lb32627/lb32627-1/processing/analysis/model
REMARK            -m \                                                          
REMARK            /dls/labxchem/data/lb32627/lb32627-1/processing/analysis/model
REMARK            -l \                                                          
REMARK            /dls/labxchem/data/lb32627/lb32627-1/processing/analysis/model
REMARK            -autoncs -M TLSbasic -d Refine_2                              
REMARK Files used:                                                              
REMARK   PDB              = Refine_2/pdbchk.pdb                                 
REMARK   MTZ              = /dls/labxchem/data/lb32627/lb32627-1/processing/anal
REMARK output written to subdirectory = Refine_2                                
REMARK best refinement for F,SIGF with R/Rfree 0.2255/0.2822                    
REMARK header records are copied from input PDB file (apart from REMARK 3!)     
REMARK --------------------- added by autoBUSTER -------------------------------
HEADER    ----                                    18-MAY-20                     
TITLE     ---                                                                   
COMPND    ---                                                                   
EXPDTA    X-RAY DIFFRACTION
REMARK   2                                                            
REMARK   2 RESOLUTION.    1.48 ANGSTROMS.
REMARK   3
REMARK   3 REFINEMENT.
REMARK   3   PROGRAM     : BUSTER 2.10.4 (21-NOV-2022)
REMARK   3   AUTHORS     : BRICOGNE,BLANC,BRANDL,FLENSBURG,KELLER,
REMARK   3               : PACIOREK,ROVERSI,SHARFF,SMART,VONRHEIN,WOMACK;
REMARK   3               : MATTHEWS,TEN EYCK,TRONRUD
REMARK   3
REMARK   3  DATA USED IN REFINEMENT.
REMARK   3   RESOLUTION RANGE HIGH (ANGSTROMS) : 1.475
REMARK   3   RESOLUTION RANGE LOW  (ANGSTROMS) : 16.79
REMARK   3   DATA CUTOFF            (SIGMA(F)) : 0.000
REMARK   3   COMPLETENESS FOR RANGE        (%) : 79.0
REMARK   3   NUMBER OF REFLECTIONS             : 41805
REMARK   3
REMARK   3  FIT TO DATA USED IN REFINEMENT.
REMARK   3   CROSS-VALIDATION METHOD          : THROUGHOUT
REMARK   3   FREE R VALUE TEST SET SELECTION  : RANDOM
REMARK   3   R VALUE     (WORKING + TEST SET) : 0.2305
REMARK   3   R VALUE            (WORKING SET) : 0.2282
REMARK   3   FREE R VALUE                     : 0.2770
REMARK   3   FREE R VALUE TEST SET SIZE   (%) : 4.850
REMARK   3   FREE R VALUE TEST SET COUNT      : 2028
REMARK   3   ESTIMATED ERROR OF FREE R VALUE  : NULL
REMARK   3
REMARK   3  FIT IN THE HIGHEST RESOLUTION BIN.
REMARK   3   TOTAL NUMBER OF BINS USED           : 51
REMARK   3   BIN RESOLUTION RANGE HIGH       (A) : 1.48
REMARK   3   BIN RESOLUTION RANGE LOW        (A) : 1.59
REMARK   3   BIN COMPLETENESS (WORKING+TEST) (%) : 7.61
REMARK   3   REFLECTIONS IN BIN   (WORKING+TEST) : 837
REMARK   3   BIN R VALUE          (WORKING+TEST) : 0.5444
REMARK   3   REFLECTIONS IN BIN    (WORKING SET) : 793
REMARK   3   BIN R VALUE           (WORKING SET) : 0.5458
REMARK   3   BIN FREE R VALUE                    : 0.5202
REMARK   3   BIN FREE R VALUE TEST SET SIZE  (%) : 5.26
REMARK   3   BIN FREE R VALUE TEST SET COUNT     : 44
REMARK   3   ESTIMATED ERROR OF BIN FREE R VALUE : NULL
REMARK   3
REMARK   3  NUMBER OF NON-HYDROGEN ATOMS USED IN REFINEMENT.
REMARK   3   PROTEIN ATOMS            : 2519
REMARK   3   NUCLEIC ACID ATOMS       : 0
REMARK   3   HETEROGEN ATOMS          : 24
REMARK   3   SOLVENT ATOMS            : 350
REMARK   3
REMARK   3  B VALUES.
REMARK   3   FROM WILSON PLOT           (A**2) : 24.47
REMARK   3   MEAN B VALUE      (OVERALL, A**2) : 31.52
REMARK   3   OVERALL ANISOTROPIC B VALUE.
REMARK   3    B11 (A**2) : -1.38000
REMARK   3    B22 (A**2) : -1.38000
REMARK   3    B33 (A**2) : 2.76000
REMARK   3    B12 (A**2) : 0.00000
REMARK   3    B13 (A**2) : 0.00000
REMARK   3    B23 (A**2) : 0.00000
REMARK   3
REMARK   3  ESTIMATED COORDINATE ERROR.
REMARK   3   ESD FROM LUZZATI PLOT                    (A) : 0.29
REMARK   3   DPI (BLOW EQ-10) BASED ON R VALUE        (A) : 0.120
REMARK   3   DPI (BLOW EQ-9) BASED ON FREE R VALUE    (A) : 0.121
REMARK   3   DPI (CRUICKSHANK) BASED ON R VALUE       (A) : 0.113
REMARK   3   DPI (CRUICKSHANK) BASED ON FREE R VALUE  (A) : 0.117
REMARK   3
REMARK   3   REFERENCES: BLOW, D. (2002) ACTA CRYST D58, 792-797
REMARK   3               CRUICKSHANK, D.W.J. (1999) ACTA CRYST D55, 583-601
REMARK   3
REMARK   3  CORRELATION COEFFICIENTS.
REMARK   3   CORRELATION COEFFICIENT FO-FC      : 0.962
REMARK   3   CORRELATION COEFFICIENT FO-FC FREE : 0.944
REMARK   3
REMARK   3  X-RAY WEIGHT : 8.04
REMARK   3
REMARK   3  GEOMETRY FUNCTION.                                                  
REMARK   3   RESTRAINT LIBRARIES.                                               
REMARK   3    NUMBER OF LIBRARIES USED :   8                                    
REMARK   3    LIBRARY  1 : protgeo_eh99.dat (V1.6.4.20) 20220523  STANDARD      
REMARK   3                 AMINO ACID DICTIONARY. BONDS AND ANGLES FROM         
REMARK   3                 ENGH AND HUBER EH99. OTHER VALUES BASED ON           
REMARK   3                 PREVIOUS TNT OR TAKEN FROM CCP4. INCLUDES            
REMARK   3                 HYDROGEN ATOMS.                                      
REMARK   3    LIBRARY  2 : exoticaa.dat (V1.3.4.16) 20220523  COLLECTION        
REMARK   3                 OF NON-STANDARD AMINO ACIDS, MAINLY EH91             
REMARK   3                 WITHOUT IDEAL DISTANCE INFO                          
REMARK   3    LIBRARY  3 : nuclgeo.dat (V1.13.4.9) 20221011                     
REMARK   3    LIBRARY  4 : bcorrel.dat (V1.15.10.2) 20190616                    
REMARK   3    LIBRARY  5 : contact.dat (V1.15.12.10) 20191121                   
REMARK   3    LIBRARY  6 : idealdist_contact.dat (V1.3.4.13) 20220125           
REMARK   3                 IDEAL-DISTANCE CONTACT TERM DATA AS USED IN          
REMARK   3                 PROLSQ. VALUES USED HERE ARE BASED ON DATA           
REMARK   3                 HARVESTING OF PDB AS OF 20190109.                    
REMARK   3    LIBRARY  7 : restraints for LIG (unknown) from cif                
REMARK   3                 dictionary ASAP-0000789-001.cif; generated by        
REMARK   3                 GRADE 1.2.21 (Feb 03 2022) from SMILES               
REMARK   3                 O=C(O)[C@@H](Nc1ncnc2[nH]ccc12)c1ccc2c(c1)OCCO2      
REMARK   3                 using MOGUL 1.8.5(274361), CSD as541be, with         
REMARK   3                 quantum mechanics RM1                                
REMARK   3    LIBRARY  8 : assume.dat (V1.9.4.3) 20221011                       
REMARK   3                                                                      
REMARK   3   NUMBER OF GEOMETRIC FUNCTION TERMS DEFINED : 15                    
REMARK   3   TERM                          COUNT    WEIGHT   FUNCTION.          
REMARK   3    BOND LENGTHS              :   2633 ;   2.00 ;  HARMONIC           
REMARK   3    BOND ANGLES               :   3590 ;   2.00 ;  HARMONIC           
REMARK   3    TORSION ANGLES            :    905 ;   2.00 ;  SINUSOIDAL         
REMARK   3    TRIGONAL CARBON PLANES    :   NULL ;   NULL ;  NULL               
REMARK   3    GENERAL PLANES            :    478 ;   5.00 ;  HARMONIC           
REMARK   3    ISOTROPIC THERMAL FACTORS :   2633 ;  10.00 ;  HARMONIC           
REMARK   3    BAD NON-BONDED CONTACTS   :   NULL ;   NULL ;  NULL               
REMARK   3    IMPROPER TORSIONS         :   NULL ;   NULL ;  NULL               
REMARK   3    PSEUDOROTATION ANGLES     :   NULL ;   NULL ;  NULL               
REMARK   3    CHIRAL IMPROPER TORSION   :    339 ;   5.00 ;  SEMIHARMONIC       
REMARK   3    SUM OF OCCUPANCIES        :   NULL ;   NULL ;  NULL               
REMARK   3    UTILITY DISTANCES         :   NULL ;   NULL ;  NULL               
REMARK   3    UTILITY ANGLES            :   NULL ;   NULL ;  NULL               
REMARK   3    UTILITY TORSION           :   NULL ;   NULL ;  NULL               
REMARK   3    IDEAL-DIST CONTACT TERM   :   2440 ;   4.00 ;  SEMIHARMONIC       
REMARK   3                                                                      
REMARK   3   RMS DEVIATIONS FROM IDEAL VALUES.                                  
REMARK   3   BOND LENGTHS                       (A) : 0.010                     
REMARK   3   BOND ANGLES                  (DEGREES) : 1.00                      
REMARK   3   PEPTIDE OMEGA TORSION ANGLES (DEGREES) : 3.68                      
REMARK   3   OTHER TORSION ANGLES         (DEGREES) : 15.78                     
REMARK   3                                                                      
REMARK   3   SIMILARITY.                                                        
REMARK   3    NCS.                                                              
REMARK   3     NCS METHOD: RESTRAINT LSSR (-AUTONCS)                            
REMARK   3    TARGET RESTRAINTS.                                                
REMARK   3     TARGET REPRESENTATION : NONE                                     
REMARK   3     TARGET STRUCTURE : NULL                                          
REMARK   3                                                                      
REMARK   3  TLS DETAILS.                                                        
REMARK   3   NUMBER OF TLS GROUPS  :            2                               
REMARK   3                                                                      
REMARK   3   TLS GROUP :            1                                           
REMARK   3    SET : { A|* }                                                     
REMARK   3    ORIGIN FOR THE GROUP (A):    4.1260   21.3972   -0.5017           
REMARK   3    T TENSOR                                                          
REMARK   3     T11:   -0.0838 T22:   -0.0851                                    
REMARK   3     T33:    0.1375 T12:   -0.0002                                    
REMARK   3     T13:   -0.0321 T23:   -0.0002                                    
REMARK   3    L TENSOR                                                          
REMARK   3     L11:    0.9104 L22:    2.0748                                    
REMARK   3     L33:    0.0898 L12:   -0.4384                                    
REMARK   3     L13:   -0.0255 L23:   -0.0785                                    
REMARK   3    S TENSOR                                                          
REMARK   3     S11:    0.0042 S12:   -0.0100 S13:   -0.0102                     
REMARK   3     S21:    0.0663 S22:    0.0317 S23:   -0.0883                     
REMARK   3     S31:    0.0407 S32:   -0.0265 S33:   -0.0359                     
REMARK   3                                                                      
REMARK   3   TLS GROUP :            2                                           
REMARK   3    SET : { B|* }                                                     
REMARK   3    ORIGIN FOR THE GROUP (A):   22.4364   43.3128   -7.7052           
REMARK   3    T TENSOR                                                          
REMARK   3     T11:   -0.1130 T22:   -0.1035                                    
REMARK   3     T33:    0.1698 T12:    0.0029                                    
REMARK   3     T13:   -0.0076 T23:   -0.0008                                    
REMARK   3    L TENSOR                                                          
REMARK   3     L11:    1.7039 L22:    1.3499                                    
REMARK   3     L33:    0.4967 L12:   -0.4534                                    
REMARK   3     L13:   -0.3789 L23:    0.2991                                    
REMARK   3    S TENSOR                                                          
REMARK   3     S11:    0.0572 S12:    0.0271 S13:   -0.0741                     
REMARK   3     S21:    0.0384 S22:   -0.0548 S23:   -0.1584                     
REMARK   3     S31:   -0.0733 S32:   -0.0003 S33:   -0.0024                     
REMARK   3                                                                      
REMARK   3  REFINEMENT NOTES.                                                   
REMARK   3   NUMBER OF REFINEMENT NOTES :   1                                   
REMARK   3   NOTE   1 : IDEAL-DIST CONTACT TERM CONTACT SETUP. ALL ATOMS        
REMARK   3               HAVE CCP4 ATOM TYPE FROM LIBRARY                       
REMARK   3
REMARK   3  OTHER REFINEMENT REMARKS: NULL
REMARK   3
REMARK 290                                                            
REMARK 290 CRYSTALLOGRAPHIC SYMMETRY                                  
REMARK 290 SYMMETRY OPERATORS FOR SPACE GROUP: P 43                   
REMARK 290                                                            
REMARK 290      SYMOP   SYMMETRY                                      
REMARK 290     NNNMMM   OPERATOR                                      
REMARK 290       1555   X,Y,Z                                         
REMARK 290       2555   -X,-Y,1/2+Z                                   
REMARK 290       3555   -Y,X,3/4+Z                                    
REMARK 290       4555   Y,-X,1/4+Z                                    
REMARK 290                                                            
REMARK 290     WHERE NNN -> OPERATOR NUMBER                           
REMARK 290           MMM -> TRANSLATION VECTOR                        
REMARK 290                                                            
REMARK 290 CRYSTALLOGRAPHIC SYMMETRY TRANSFORMATIONS                  
REMARK 290 THE FOLLOWING TRANSFORMATIONS OPERATE ON THE ATOM/HETATM   
REMARK 290 RECORDS IN THIS ENTRY TO PRODUCE CRYSTALLOGRAPHICALLY      
REMARK 290 RELATED MOLECULES.                                         
REMARK 290   SMTRY1   1  1.000000  0.000000  0.000000        0.00000
REMARK 290   SMTRY2   1  0.000000  1.000000  0.000000        0.00000
REMARK 290   SMTRY3   1  0.000000  0.000000  1.000000        0.00000
REMARK 290   SMTRY1   2 -1.000000  0.000000  0.000000        0.00000
REMARK 290   SMTRY2   2  0.000000 -1.000000  0.000000        0.00000
REMARK 290   SMTRY3   2  0.000000  0.000000  1.000000       19.83650
REMARK 290   SMTRY1   3  0.000000 -1.000000  0.000000        0.00000
REMARK 290   SMTRY2   3  1.000000  0.000000  0.000000        0.00000
REMARK 290   SMTRY3   3  0.000000  0.000000  1.000000       29.75475
REMARK 290   SMTRY1   4  0.000000  1.000000  0.000000        0.00000
REMARK 290   SMTRY2   4 -1.000000  0.000000  0.000000        0.00000
REMARK 290   SMTRY3   4  0.000000  0.000000  1.000000        9.91825
REMARK 290                                                            
REMARK 290 REMARK: NULL                                               
CRYST1   89.187   89.187   39.673  90.00  90.00  90.00 P 43           



$$$$
SARS2_Mac1A-A1047
  PyMOL3.0          3D                             0

 17 19  0  0  0  0  0  0  0  0999 V2000
   -0.8530   14.9320   -2.7510 N   0  0  0  0  0  0  0  0  0  0  0  0
    0.8550   15.6290   -4.4000 C   0  0  0  0  0  0  0  0  0  0  0  0
   -0.0370   11.3450   -2.7340 O   0  0  0  0  0  0  0  0  0  0  0  0
    0.3670   14.5300   -3.4740 C   0  0  0  0  0  0  0  0  0  0  0  0
    0.1130   14.6490   -0.6630 N   0  0  0  0  0  0  0  0  0  0  0  0
   -0.9750   14.9580   -1.3970 C   0  0  0  0  0  0  0  0  0  0  0  0
   -1.0800   15.1480    1.3880 N   0  0  0  0  0  0  0  0  0  0  0  0
   -0.0030   14.8020    0.6680 C   0  0  0  0  0  0  0  0  0  0  0  0
   -3.4020   15.7650    1.0770 N   0  0  0  0  0  0  0  0  0  0  0  0
   -2.1620   15.3950    0.6310 C   0  0  0  0  0  0  0  0  0  0  0  0
   -4.2120   15.9450   -0.0190 C   0  0  0  0  0  0  0  0  0  0  0  0
   -3.5170   15.7070   -1.1630 C   0  0  0  0  0  0  0  0  0  0  0  0
   -2.1980   15.3360   -0.7690 C   0  0  0  0  0  0  0  0  0  0  0  0
    0.2090   13.1690   -4.1900 C   0  0  0  0  0  0  0  0  0  0  0  0
   -1.2210   12.6430   -4.3410 C   0  0  0  0  0  0  0  0  0  0  0  0
   -1.3290   11.5400   -3.3310 C   0  0  0  0  0  0  0  0  0  0  0  0
    0.9200   11.9750   -3.5630 C   0  0  0  0  0  0  0  0  0  0  0  0
  1  6  1  0  0  0  0
  2  4  1  0  0  0  0
  3 16  1  0  0  0  0
  1  4  1  0  0  0  0
  4 14  1  0  0  0  0
  5  6  4  0  0  0  0
  6 13  4  0  0  0  0
  7  8  4  0  0  0  0
  5  8  4  0  0  0  0
  9 10  4  0  0  0  0
  7 10  4  0  0  0  0
  9 11  4  0  0  0  0
 11 12  4  0  0  0  0
 10 13  4  0  0  0  0
 12 13  4  0  0  0  0
 14 15  1  0  0  0  0
 14 17  1  0  0  0  0
 15 16  1  0  0  0  0
  3 17  1  0  0  0  0
M  END
>  <pdb_header>
HEADER    ----                                    18-MAY-20                     
TITLE     ---                                                                   
EXPDTA    X-RAY DIFFRACTION                                                     
REMARK --------------------- added by autoBUSTER ---------------------------------START
REMARK run at   = Mon Apr 17 11:42:10 BST 2023
REMARK     in   = /dls/labxchem/data/lb32627/lb32627-1/processing/analysis/model_building/SARS2_Mac1A-A1047
REMARK     user = dcn76311
REMARK     cmd  = \
REMARK            /dls_sw/apps/GPhL/BUSTER/20230217/autoBUSTER/bin/linux64/refine \
REMARK            -p \
REMARK            /dls/labxchem/data/lb32627/lb32627-1/processing/analysis/model_building/SARS2_Mac1A-A1047/cootOut/Refi
REMARK            -m \
REMARK            /dls/labxchem/data/lb32627/lb32627-1/processing/analysis/model_building/SARS2_Mac1A-A1047/SARS2_Mac1A-
REMARK            -l \
REMARK            /dls/labxchem/data/lb32627/lb32627-1/processing/analysis/model_building/SARS2_Mac1A-A1047/ASAP-0000877
REMARK            -autoncs -M TLSbasic -d Refine_13
REMARK Files used:
REMARK   PDB              = Refine_13/pdbchk.pdb
REMARK   MTZ              = /dls/labxchem/data/lb32627/lb32627-1/processing/analysis/model_building/SARS2_Mac1A-A1047/SA
REMARK output written to subdirectory = Refine_13
REMARK best refinement for F,SIGF with R/Rfree 0.1969/0.2207
REMARK header records are copied from input PDB file (apart from REMARK 3!)
REMARK --------------------- added by autoBUSTER -----------------------------------END
REMARK --------------------- added by autoBUSTER -------------------------------
REMARK run at   = Mon Apr 17 11:12:21 BST 2023                                  
REMARK     in   = /dls/labxchem/data/lb32627/lb32627-1/processing/analysis/model
REMARK     user = dcn76311                                                      
REMARK     cmd  = \                                                             
REMARK            /dls_sw/apps/GPhL/BUSTER/20230217/autoBUSTER/bin/linux64/refin
REMARK            -p \                                                          
REMARK            /dls/labxchem/data/lb32627/lb32627-1/processing/analysis/model
REMARK            -m \                                                          
REMARK            /dls/labxchem/data/lb32627/lb32627-1/processing/analysis/model
REMARK            -l \                                                          
REMARK            /dls/labxchem/data/lb32627/lb32627-1/processing/analysis/model
REMARK            -autoncs -M TLSbasic -d Refine_12                             
REMARK Files used:                                                              
REMARK   PDB              = Refine_12/pdbchk.pdb                                
REMARK   MTZ              = /dls/labxchem/data/lb32627/lb32627-1/processing/anal
REMARK output written to subdirectory = Refine_12                               
REMARK best refinement for F,SIGF with R/Rfree 0.1970/0.2213                    
REMARK header records are copied from input PDB file (apart from REMARK 3!)     
REMARK --------------------- added by autoBUSTER -------------------------------
REMARK --------------------- added by autoBUSTER -------------------------------
REMARK run at   = Fri Feb 10 11:34:25 GMT 2023                                  
REMARK     in   = /dls/labxchem/data/lb32627/lb32627-1/processing/analysis/model
REMARK     user = dcn76311                                                      
REMARK     cmd  = \                                                             
REMARK            /dls_sw/apps/GPhL/BUSTER/20221121/autoBUSTER/bin/linux64/refin
REMARK            -p \                                                          
REMARK            /dls/labxchem/data/lb32627/lb32627-1/processing/analysis/model
REMARK            -m \                                                          
REMARK            /dls/labxchem/data/lb32627/lb32627-1/processing/analysis/model
REMARK            -l \                                                          
REMARK            /dls/labxchem/data/lb32627/lb32627-1/processing/analysis/model
REMARK            -autoncs -M TLSbasic -d Refine_11                             
REMARK Files used:                                                              
REMARK   PDB              = Refine_11/pdbchk.pdb                                
REMARK   MTZ              = /dls/labxchem/data/lb32627/lb32627-1/processing/anal
REMARK output written to subdirectory = Refine_11                               
REMARK best refinement for F,SIGF with R/Rfree 0.1968/0.2220                    
REMARK header records are copied from input PDB file (apart from REMARK 3!)     
REMARK --------------------- added by autoBUSTER -------------------------------
REMARK --------------------- added by autoBUSTER -------------------------------
REMARK run at   = Fri Feb 10 11:08:02 GMT 2023                                  
REMARK     in   = /dls/labxchem/data/lb32627/lb32627-1/processing/analysis/model
REMARK     user = dcn76311                                                      
REMARK     cmd  = \                                                             
REMARK            /dls_sw/apps/GPhL/BUSTER/20221121/autoBUSTER/bin/linux64/refin
REMARK            -p \                                                          
REMARK            /dls/labxchem/data/lb32627/lb32627-1/processing/analysis/model
REMARK            -m \                                                          
REMARK            /dls/labxchem/data/lb32627/lb32627-1/processing/analysis/model
REMARK            -l \                                                          
REMARK            /dls/labxchem/data/lb32627/lb32627-1/processing/analysis/model
REMARK            -autoncs -M TLSbasic -d Refine_10                             
REMARK Files used:                                                              
REMARK   PDB              = Refine_10/pdbchk.pdb                                
REMARK   MTZ              = /dls/labxchem/data/lb32627/lb32627-1/processing/anal
REMARK output written to subdirectory = Refine_10                               
REMARK best refinement for F,SIGF with R/Rfree 0.1968/0.2221                    
REMARK header records are copied from input PDB file (apart from REMARK 3!)     
REMARK --------------------- added by autoBUSTER -------------------------------
REMARK --------------------- added by autoBUSTER -------------------------------
REMARK run at   = Fri Feb 10 08:45:29 GMT 2023                                  
REMARK     in   = /dls/labxchem/data/lb32627/lb32627-1/processing/analysis/model
REMARK     user = dcn76311                                                      
REMARK     cmd  = \                                                             
REMARK            /dls_sw/apps/GPhL/BUSTER/20221121/autoBUSTER/bin/linux64/refin
REMARK            -p \                                                          
REMARK            /dls/labxchem/data/lb32627/lb32627-1/processing/analysis/model
REMARK            -m \                                                          
REMARK            /dls/labxchem/data/lb32627/lb32627-1/processing/analysis/model
REMARK            -l \                                                          
REMARK            /dls/labxchem/data/lb32627/lb32627-1/processing/analysis/model
REMARK            -autoncs -M TLSbasic -d Refine_9                              
REMARK Files used:                                                              
REMARK   PDB              = Refine_9/pdbchk.pdb                                 
REMARK   MTZ              = /dls/labxchem/data/lb32627/lb32627-1/processing/anal
REMARK output written to subdirectory = Refine_9                                
REMARK best refinement for F,SIGF with R/Rfree 0.1972/0.2213                    
REMARK header records are copied from input PDB file (apart from REMARK 3!)     
REMARK --------------------- added by autoBUSTER -------------------------------
REMARK --------------------- added by autoBUSTER -------------------------------
REMARK run at   = Thu Feb  9 14:31:17 GMT 2023                                  
REMARK     in   = /dls/labxchem/data/lb32627/lb32627-1/processing/analysis/model
REMARK     user = dcn76311                                                      
REMARK     cmd  = \                                                             
REMARK            /dls_sw/apps/GPhL/BUSTER/20221121/autoBUSTER/bin/linux64/refin
REMARK            -p \                                                          
REMARK            /dls/labxchem/data/lb32627/lb32627-1/processing/analysis/model
REMARK            -m \                                                          
REMARK            /dls/labxchem/data/lb32627/lb32627-1/processing/analysis/model
REMARK            -l \                                                          
REMARK            /dls/labxchem/data/lb32627/lb32627-1/processing/analysis/model
REMARK            -autoncs -M TLSbasic -d Refine_8                              
REMARK Files used:                                                              
REMARK   PDB              = Refine_8/pdbchk.pdb                                 
REMARK   MTZ              = /dls/labxchem/data/lb32627/lb32627-1/processing/anal
REMARK output written to subdirectory = Refine_8                                
REMARK best refinement for F,SIGF with R/Rfree 0.1977/0.2217                    
REMARK header records are copied from input PDB file (apart from REMARK 3!)     
REMARK --------------------- added by autoBUSTER -------------------------------
REMARK --------------------- added by autoBUSTER -------------------------------
REMARK run at   = Thu Feb  9 13:56:16 GMT 2023                                  
REMARK     in   = /dls/labxchem/data/lb32627/lb32627-1/processing/analysis/model
REMARK     user = dcn76311                                                      
REMARK     cmd  = \                                                             
REMARK            /dls_sw/apps/GPhL/BUSTER/20221121/autoBUSTER/bin/linux64/refin
REMARK            -p \                                                          
REMARK            /dls/labxchem/data/lb32627/lb32627-1/processing/analysis/model
REMARK            -m \                                                          
REMARK            /dls/labxchem/data/lb32627/lb32627-1/processing/analysis/model
REMARK            -l \                                                          
REMARK            /dls/labxchem/data/lb32627/lb32627-1/processing/analysis/model
REMARK            -autoncs -M TLSbasic -d Refine_7                              
REMARK Files used:                                                              
REMARK   PDB              = Refine_7/pdbchk.pdb                                 
REMARK   MTZ              = /dls/labxchem/data/lb32627/lb32627-1/processing/anal
REMARK output written to subdirectory = Refine_7                                
REMARK best refinement for F,SIGF with R/Rfree 0.1970/0.2208                    
REMARK header records are copied from input PDB file (apart from REMARK 3!)     
REMARK --------------------- added by autoBUSTER -------------------------------
REMARK --------------------- added by autoBUSTER -------------------------------
REMARK run at   = Thu Feb  9 12:51:00 GMT 2023                                  
REMARK     in   = /dls/labxchem/data/lb32627/lb32627-1/processing/analysis/model
REMARK     user = dcn76311                                                      
REMARK     cmd  = \                                                             
REMARK            /dls_sw/apps/GPhL/BUSTER/20221121/autoBUSTER/bin/linux64/refin
REMARK            -p \                                                          
REMARK            /dls/labxchem/data/lb32627/lb32627-1/processing/analysis/model
REMARK            -m \                                                          
REMARK            /dls/labxchem/data/lb32627/lb32627-1/processing/analysis/model
REMARK            -l \                                                          
REMARK            /dls/labxchem/data/lb32627/lb32627-1/processing/analysis/model
REMARK            -autoncs -M TLSbasic -d Refine_6                              
REMARK Files used:                                                              
REMARK   PDB              = Refine_6/pdbchk.pdb                                 
REMARK   MTZ              = /dls/labxchem/data/lb32627/lb32627-1/processing/anal
REMARK output written to subdirectory = Refine_6                                
REMARK best refinement for F,SIGF with R/Rfree 0.1980/0.2221                    
REMARK header records are copied from input PDB file (apart from REMARK 3!)     
REMARK --------------------- added by autoBUSTER -------------------------------
REMARK --------------------- added by autoBUSTER -------------------------------
REMARK run at   = Thu Feb  9 11:09:51 GMT 2023                                  
REMARK     in   = /dls/labxchem/data/lb32627/lb32627-1/processing/analysis/model
REMARK     user = dcn76311                                                      
REMARK     cmd  = \                                                             
REMARK            /dls_sw/apps/GPhL/BUSTER/20221121/autoBUSTER/bin/linux64/refin
REMARK            -p \                                                          
REMARK            /dls/labxchem/data/lb32627/lb32627-1/processing/analysis/model
REMARK            -m \                                                          
REMARK            /dls/labxchem/data/lb32627/lb32627-1/processing/analysis/model
REMARK            -l \                                                          
REMARK            /dls/labxchem/data/lb32627/lb32627-1/processing/analysis/model
REMARK            -autoncs -M TLSbasic -d Refine_5                              
REMARK Files used:                                                              
REMARK   PDB              = Refine_5/pdbchk.pdb                                 
REMARK   MTZ              = /dls/labxchem/data/lb32627/lb32627-1/processing/anal
REMARK output written to subdirectory = Refine_5                                
REMARK best refinement for F,SIGF with R/Rfree 0.1983/0.2227                    
REMARK header records are copied from input PDB file (apart from REMARK 3!)     
REMARK --------------------- added by autoBUSTER -------------------------------
REMARK --------------------- added by autoBUSTER -------------------------------
REMARK run at   = Tue Feb  7 09:41:34 GMT 2023                                  
REMARK     in   = /dls/labxchem/data/lb32627/lb32627-1/processing/analysis/model
REMARK     user = dcn76311                                                      
REMARK     cmd  = \                                                             
REMARK            /dls_sw/apps/GPhL/BUSTER/20221121/autoBUSTER/bin/linux64/refin
REMARK            -p \                                                          
REMARK            /dls/labxchem/data/lb32627/lb32627-1/processing/analysis/model
REMARK            -m \                                                          
REMARK            /dls/labxchem/data/lb32627/lb32627-1/processing/analysis/model
REMARK            -l \                                                          
REMARK            /dls/labxchem/data/lb32627/lb32627-1/processing/analysis/model
REMARK            -autoncs -M TLSbasic -d Refine_4                              
REMARK Files used:                                                              
REMARK   PDB              = Refine_4/pdbchk.pdb                                 
REMARK   MTZ              = /dls/labxchem/data/lb32627/lb32627-1/processing/anal
REMARK output written to subdirectory = Refine_4                                
REMARK best refinement for F,SIGF with R/Rfree 0.1981/0.2247                    
REMARK header records are copied from input PDB file (apart from REMARK 3!)     
REMARK --------------------- added by autoBUSTER -------------------------------
REMARK --------------------- added by autoBUSTER -------------------------------
REMARK run at   = Mon Feb  6 14:58:34 GMT 2023                                  
REMARK     in   = /dls/labxchem/data/lb32627/lb32627-1/processing/analysis/model
REMARK     user = dcn76311                                                      
REMARK     cmd  = \                                                             
REMARK            /dls_sw/apps/GPhL/BUSTER/20221121/autoBUSTER/bin/linux64/refin
REMARK            -p \                                                          
REMARK            /dls/labxchem/data/lb32627/lb32627-1/processing/analysis/model
REMARK            -m \                                                          
REMARK            /dls/labxchem/data/lb32627/lb32627-1/processing/analysis/model
REMARK            -l \                                                          
REMARK            /dls/labxchem/data/lb32627/lb32627-1/processing/analysis/model
REMARK            -autoncs -M TLSbasic -d Refine_3                              
REMARK Files used:                                                              
REMARK   PDB              = Refine_3/pdbchk.pdb                                 
REMARK   MTZ              = /dls/labxchem/data/lb32627/lb32627-1/processing/anal
REMARK output written to subdirectory = Refine_3                                
REMARK best refinement for F,SIGF with R/Rfree 0.2001/0.2270                    
REMARK header records are copied from input PDB file (apart from REMARK 3!)     
REMARK --------------------- added by autoBUSTER -------------------------------
REMARK --------------------- added by autoBUSTER -------------------------------
REMARK run at   = Mon Feb  6 14:28:22 GMT 2023                                  
REMARK     in   = /dls/labxchem/data/lb32627/lb32627-1/processing/analysis/model
REMARK     user = dcn76311                                                      
REMARK     cmd  = \                                                             
REMARK            /dls_sw/apps/GPhL/BUSTER/20221121/autoBUSTER/bin/linux64/refin
REMARK            -p \                                                          
REMARK            /dls/labxchem/data/lb32627/lb32627-1/processing/analysis/model
REMARK            -m \                                                          
REMARK            /dls/labxchem/data/lb32627/lb32627-1/processing/analysis/model
REMARK            -l \                                                          
REMARK            /dls/labxchem/data/lb32627/lb32627-1/processing/analysis/model
REMARK            -autoncs -M TLSbasic -d Refine_2                              
REMARK Files used:                                                              
REMARK   PDB              = Refine_2/pdbchk.pdb                                 
REMARK   MTZ              = /dls/labxchem/data/lb32627/lb32627-1/processing/anal
REMARK output written to subdirectory = Refine_2                                
REMARK best refinement for F,SIGF with R/Rfree 0.2001/0.2272                    
REMARK header records are copied from input PDB file (apart from REMARK 3!)     
REMARK --------------------- added by autoBUSTER -------------------------------
REMARK --------------------- added by autoBUSTER -------------------------------
REMARK run at   = Fri Feb  3 08:24:49 GMT 2023                                  
REMARK     in   = /dls/labxchem/data/lb32627/lb32627-1/processing/analysis/model
REMARK     user = dcn76311                                                      
REMARK     cmd  = \                                                             
REMARK            /dls_sw/apps/GPhL/BUSTER/20221121/autoBUSTER/bin/linux64/refin
REMARK            -p \                                                          
REMARK            /dls/labxchem/data/lb32627/lb32627-1/processing/analysis/model
REMARK            -m \                                                          
REMARK            /dls/labxchem/data/lb32627/lb32627-1/processing/analysis/model
REMARK            -l \                                                          
REMARK            /dls/labxchem/data/lb32627/lb32627-1/processing/analysis/model
REMARK            -autoncs -M TLSbasic -d Refine_1                              
REMARK Files used:                                                              
REMARK   PDB              = Refine_1/pdbchk.pdb                                 
REMARK   MTZ              = /dls/labxchem/data/lb32627/lb32627-1/processing/anal
REMARK output written to subdirectory = Refine_1                                
REMARK best refinement for F,SIGF with R/Rfree 0.2023/0.2290                    
REMARK header records are copied from input PDB file (apart from REMARK 3!)     
REMARK --------------------- added by autoBUSTER -------------------------------
REMARK   2                                                            
REMARK   2 RESOLUTION.    1.16 ANGSTROMS.
REMARK   3
REMARK   3 REFINEMENT.
REMARK   3   PROGRAM     : BUSTER 2.10.4 (17-FEB-2023)
REMARK   3   AUTHORS     : BRICOGNE,BLANC,BRANDL,FLENSBURG,KELLER,
REMARK   3               : PACIOREK,ROVERSI,SHARFF,SMART,VONRHEIN,WOMACK;
REMARK   3               : MATTHEWS,TEN EYCK,TRONRUD
REMARK   3
REMARK   3  DATA USED IN REFINEMENT.
REMARK   3   RESOLUTION RANGE HIGH (ANGSTROMS) : 1.163
REMARK   3   RESOLUTION RANGE LOW  (ANGSTROMS) : 16.69
REMARK   3   DATA CUTOFF            (SIGMA(F)) : 0.000
REMARK   3   COMPLETENESS FOR RANGE        (%) : 84.4
REMARK   3   NUMBER OF REFLECTIONS             : 89673
REMARK   3
REMARK   3  FIT TO DATA USED IN REFINEMENT.
REMARK   3   CROSS-VALIDATION METHOD          : THROUGHOUT
REMARK   3   FREE R VALUE TEST SET SELECTION  : RANDOM
REMARK   3   R VALUE     (WORKING + TEST SET) : 0.1981
REMARK   3   R VALUE            (WORKING SET) : 0.1970
REMARK   3   FREE R VALUE                     : 0.2207
REMARK   3   FREE R VALUE TEST SET SIZE   (%) : 4.980
REMARK   3   FREE R VALUE TEST SET COUNT      : 4470
REMARK   3   ESTIMATED ERROR OF FREE R VALUE  : NULL
REMARK   3
REMARK   3  FIT IN THE HIGHEST RESOLUTION BIN.
REMARK   3   TOTAL NUMBER OF BINS USED           : 51
REMARK   3   BIN RESOLUTION RANGE HIGH       (A) : 1.16
REMARK   3   BIN RESOLUTION RANGE LOW        (A) : 1.22
REMARK   3   BIN COMPLETENESS (WORKING+TEST) (%) : 13.04
REMARK   3   REFLECTIONS IN BIN   (WORKING+TEST) : 1794
REMARK   3   BIN R VALUE          (WORKING+TEST) : 0.4617
REMARK   3   REFLECTIONS IN BIN    (WORKING SET) : 1700
REMARK   3   BIN R VALUE           (WORKING SET) : 0.4610
REMARK   3   BIN FREE R VALUE                    : 0.4742
REMARK   3   BIN FREE R VALUE TEST SET SIZE  (%) : 5.24
REMARK   3   BIN FREE R VALUE TEST SET COUNT     : 94
REMARK   3   ESTIMATED ERROR OF BIN FREE R VALUE : NULL
REMARK   3
REMARK   3  NUMBER OF NON-HYDROGEN ATOMS USED IN REFINEMENT.
REMARK   3   PROTEIN ATOMS            : 2519
REMARK   3   NUCLEIC ACID ATOMS       : 0
REMARK   3   HETEROGEN ATOMS          : 25
REMARK   3   SOLVENT ATOMS            : 427
REMARK   3
REMARK   3  B VALUES.
REMARK   3   FROM WILSON PLOT           (A**2) : 13.84
REMARK   3   MEAN B VALUE      (OVERALL, A**2) : 20.85
REMARK   3   OVERALL ANISOTROPIC B VALUE.
REMARK   3    B11 (A**2) : 2.67820
REMARK   3    B22 (A**2) : 2.67820
REMARK   3    B33 (A**2) : -5.35630
REMARK   3    B12 (A**2) : 0.00000
REMARK   3    B13 (A**2) : 0.00000
REMARK   3    B23 (A**2) : 0.00000
REMARK   3
REMARK   3  ESTIMATED COORDINATE ERROR.
REMARK   3   ESD FROM LUZZATI PLOT                    (A) : 0.19
REMARK   3   DPI (BLOW EQ-10) BASED ON R VALUE        (A) : 0.051
REMARK   3   DPI (BLOW EQ-9) BASED ON FREE R VALUE    (A) : 0.052
REMARK   3   DPI (CRUICKSHANK) BASED ON R VALUE       (A) : 0.048
REMARK   3   DPI (CRUICKSHANK) BASED ON FREE R VALUE  (A) : 0.050
REMARK   3
REMARK   3   REFERENCES: BLOW, D. (2002) ACTA CRYST D58, 792-797
REMARK   3               CRUICKSHANK, D.W.J. (1999) ACTA CRYST D55, 583-601
REMARK   3
REMARK   3  CORRELATION COEFFICIENTS.
REMARK   3   CORRELATION COEFFICIENT FO-FC      : 0.959
REMARK   3   CORRELATION COEFFICIENT FO-FC FREE : 0.956
REMARK   3
REMARK   3  X-RAY WEIGHT : 6.07
REMARK   3
REMARK   3  GEOMETRY FUNCTION.                                                  
REMARK   3   RESTRAINT LIBRARIES.                                               
REMARK   3    NUMBER OF LIBRARIES USED :   9                                    
REMARK   3    LIBRARY  1 : protgeo_eh99.dat (V1.6.4.20) 20220523  STANDARD      
REMARK   3                 AMINO ACID DICTIONARY. BONDS AND ANGLES FROM         
REMARK   3                 ENGH AND HUBER EH99. OTHER VALUES BASED ON           
REMARK   3                 PREVIOUS TNT OR TAKEN FROM CCP4. INCLUDES            
REMARK   3                 HYDROGEN ATOMS.                                      
REMARK   3    LIBRARY  2 : exoticaa.dat (V1.3.4.16) 20220523  COLLECTION        
REMARK   3                 OF NON-STANDARD AMINO ACIDS, MAINLY EH91             
REMARK   3                 WITHOUT IDEAL DISTANCE INFO                          
REMARK   3    LIBRARY  3 : nuclgeo.dat (V1.13.4.9) 20221011                     
REMARK   3    LIBRARY  4 : bcorrel.dat (V1.15.10.2) 20190616                    
REMARK   3    LIBRARY  5 : contact.dat (V1.15.12.10) 20191121                   
REMARK   3    LIBRARY  6 : idealdist_contact.dat (V1.3.4.13) 20220125           
REMARK   3                 IDEAL-DISTANCE CONTACT TERM DATA AS USED IN          
REMARK   3                 PROLSQ. VALUES USED HERE ARE BASED ON DATA           
REMARK   3                 HARVESTING OF PDB AS OF 20190109.                    
REMARK   3    LIBRARY  7 : restraints for LIG (unknown) from cif                
REMARK   3                 dictionary ASAP-0000877-001.cif; generated by        
REMARK   3                 GRADE 1.2.21 (Feb 03 2022) from SMILES               
REMARK   3                 C[C@@H](Nc1ncnc2[nH]ccc12)[C@@H]1CCOC1 using         
REMARK   3                 MOGUL 1.8.5(274361), CSD as541be, with quantum       
REMARK   3                 mechanics RM1                                        
REMARK   3    LIBRARY  8 : restraints for DMS (DIMETHYL SULFOXIDE) from         
REMARK   3                 cif dictionary DMS.cif; generated by grade2          
REMARK   3                 version 1.1.0a7 from                                 
REMARK   3                 PDB_chemical_components_definition_file              
REMARK   3                 ftp://ftp.ebi.ac.uk/pub/databases/msd/pdbechem_v     
REMARK   3                 2/D/DMS/DMS.cif using RDKit 2021.03.4                
REMARK   3                 ((DatabaseID PDB-DMS))                               
REMARK   3    LIBRARY  9 : assume.dat (V1.9.4.3) 20221011                       
REMARK   3                                                                      
REMARK   3   NUMBER OF GEOMETRIC FUNCTION TERMS DEFINED : 15                    
REMARK   3   TERM                          COUNT    WEIGHT   FUNCTION.          
REMARK   3    BOND LENGTHS              :   2676 ;   2.00 ;  HARMONIC           
REMARK   3    BOND ANGLES               :   3651 ;   2.00 ;  HARMONIC           
REMARK   3    TORSION ANGLES            :    927 ;   2.00 ;  SINUSOIDAL         
REMARK   3    TRIGONAL CARBON PLANES    :   NULL ;   NULL ;  NULL               
REMARK   3    GENERAL PLANES            :    478 ;   5.00 ;  HARMONIC           
REMARK   3    ISOTROPIC THERMAL FACTORS :   2676 ;  10.00 ;  HARMONIC           
REMARK   3    BAD NON-BONDED CONTACTS   :   NULL ;   NULL ;  NULL               
REMARK   3    IMPROPER TORSIONS         :   NULL ;   NULL ;  NULL               
REMARK   3    PSEUDOROTATION ANGLES     :   NULL ;   NULL ;  NULL               
REMARK   3    CHIRAL IMPROPER TORSION   :    345 ;   5.00 ;  SEMIHARMONIC       
REMARK   3    SUM OF OCCUPANCIES        :   NULL ;   NULL ;  NULL               
REMARK   3    UTILITY DISTANCES         :   NULL ;   NULL ;  NULL               
REMARK   3    UTILITY ANGLES            :   NULL ;   NULL ;  NULL               
REMARK   3    UTILITY TORSION           :   NULL ;   NULL ;  NULL               
REMARK   3    IDEAL-DIST CONTACT TERM   :   2734 ;   4.00 ;  SEMIHARMONIC       
REMARK   3                                                                      
REMARK   3   RMS DEVIATIONS FROM IDEAL VALUES.                                  
REMARK   3   BOND LENGTHS                       (A) : 0.014                     
REMARK   3   BOND ANGLES                  (DEGREES) : 1.18                      
REMARK   3   PEPTIDE OMEGA TORSION ANGLES (DEGREES) : 4.78                      
REMARK   3   OTHER TORSION ANGLES         (DEGREES) : 14.61                     
REMARK   3                                                                      
REMARK   3   SIMILARITY.                                                        
REMARK   3    NCS.                                                              
REMARK   3     NCS METHOD: RESTRAINT LSSR (-AUTONCS)                            
REMARK   3    TARGET RESTRAINTS.                                                
REMARK   3     TARGET REPRESENTATION : NONE                                     
REMARK   3     TARGET STRUCTURE : NULL                                          
REMARK   3                                                                      
REMARK   3  TLS DETAILS.                                                        
REMARK   3   NUMBER OF TLS GROUPS  :            2                               
REMARK   3                                                                      
REMARK   3   TLS GROUP :            1                                           
REMARK   3    SET : { A|* }                                                     
REMARK   3    ORIGIN FOR THE GROUP (A):    4.2145   21.2479   -0.4528           
REMARK   3    T TENSOR                                                          
REMARK   3     T11:   -0.0127 T22:   -0.0185                                    
REMARK   3     T33:    0.0089 T12:    0.0004                                    
REMARK   3     T13:   -0.0238 T23:    0.0078                                    
REMARK   3    L TENSOR                                                          
REMARK   3     L11:    0.5773 L22:    0.7589                                    
REMARK   3     L33:    0.0867 L12:   -0.2401                                    
REMARK   3     L13:    0.0405 L23:   -0.0046                                    
REMARK   3    S TENSOR                                                          
REMARK   3     S11:    0.0065 S12:   -0.0061 S13:   -0.0222                     
REMARK   3     S21:    0.0216 S22:   -0.0018 S23:   -0.0514                     
REMARK   3     S31:    0.0058 S32:   -0.0135 S33:   -0.0047                     
REMARK   3                                                                      
REMARK   3   TLS GROUP :            2                                           
REMARK   3    SET : { B|* }                                                     
REMARK   3    ORIGIN FOR THE GROUP (A):   22.3434   43.5481   -7.8307           
REMARK   3    T TENSOR                                                          
REMARK   3     T11:   -0.0268 T22:   -0.0161                                    
REMARK   3     T33:    0.0016 T12:    0.0073                                    
REMARK   3     T13:   -0.0020 T23:   -0.0036                                    
REMARK   3    L TENSOR                                                          
REMARK   3     L11:    0.9898 L22:    1.0211                                    
REMARK   3     L33:    0.1586 L12:   -0.2825                                    
REMARK   3     L13:   -0.2677 L23:    0.1222                                    
REMARK   3    S TENSOR                                                          
REMARK   3     S11:    0.0587 S12:    0.0033 S13:   -0.0312                     
REMARK   3     S21:   -0.0226 S22:   -0.0473 S23:   -0.0700                     
REMARK   3     S31:   -0.0333 S32:   -0.0040 S33:   -0.0114                     
REMARK   3                                                                      
REMARK   3  REFINEMENT NOTES.                                                   
REMARK   3   NUMBER OF REFINEMENT NOTES :   1                                   
REMARK   3   NOTE   1 : IDEAL-DIST CONTACT TERM CONTACT SETUP. ALL ATOMS        
REMARK   3               HAVE CCP4 ATOM TYPE FROM LIBRARY                       
REMARK   3
REMARK   3  OTHER REFINEMENT REMARKS: NULL
REMARK   3
REMARK 290                                                            
REMARK 290 CRYSTALLOGRAPHIC SYMMETRY                                  
REMARK 290 SYMMETRY OPERATORS FOR SPACE GROUP: P 43                   
REMARK 290                                                            
REMARK 290      SYMOP   SYMMETRY                                      
REMARK 290     NNNMMM   OPERATOR                                      
REMARK 290       1555   X,Y,Z                                         
REMARK 290       2555   -X,-Y,1/2+Z                                   
REMARK 290       3555   -Y,X,3/4+Z                                    
REMARK 290       4555   Y,-X,1/4+Z                                    
REMARK 290                                                            
REMARK 290     WHERE NNN -> OPERATOR NUMBER                           
REMARK 290           MMM -> TRANSLATION VECTOR                        
REMARK 290                                                            
REMARK 290 CRYSTALLOGRAPHIC SYMMETRY TRANSFORMATIONS                  
REMARK 290 THE FOLLOWING TRANSFORMATIONS OPERATE ON THE ATOM/HETATM   
REMARK 290 RECORDS IN THIS ENTRY TO PRODUCE CRYSTALLOGRAPHICALLY      
REMARK 290 RELATED MOLECULES.                                         
REMARK 290   SMTRY1   1  1.000000  0.000000  0.000000        0.00000
REMARK 290   SMTRY2   1  0.000000  1.000000  0.000000        0.00000
REMARK 290   SMTRY3   1  0.000000  0.000000  1.000000        0.00000
REMARK 290   SMTRY1   2 -1.000000  0.000000  0.000000        0.00000
REMARK 290   SMTRY2   2  0.000000 -1.000000  0.000000        0.00000
REMARK 290   SMTRY3   2  0.000000  0.000000  1.000000       19.68850
REMARK 290   SMTRY1   3  0.000000 -1.000000  0.000000        0.00000
REMARK 290   SMTRY2   3  1.000000  0.000000  0.000000        0.00000
REMARK 290   SMTRY3   3  0.000000  0.000000  1.000000       29.53275
REMARK 290   SMTRY1   4  0.000000  1.000000  0.000000        0.00000
REMARK 290   SMTRY2   4 -1.000000  0.000000  0.000000        0.00000
REMARK 290   SMTRY3   4  0.000000  0.000000  1.000000        9.84425
REMARK 290                                                            
REMARK 290 REMARK: NULL                                               
REMARK 300
REMARK 300 BIOMOLECULE: 1, 2
REMARK 300 SEE REMARK 350 FOR THE AUTHOR PROVIDED AND/OR PROGRAM
REMARK 300 GENERATED ASSEMBLY INFORMATION FOR THE STRUCTURE IN
REMARK 300 THIS ENTRY. THE REMARK MAY ALSO  PROVIDE INFORMATION ON
REMARK 300 BURIED SURFACE AREA.
REMARK 350
REMARK 350 COORDINATES FOR A COMPLETE MULTIMER REPRESENTING THE KNOWN
REMARK 350 BIOLOGICALLY SIGNIFICANT OLIGOMERIZATION STATE OF THE
REMARK 350 MOLECULE CAN BE GENERATED BY APPLYING BIOMT TRANSFORMATIONS
REMARK 350 GIVEN BELOW. BOTH NON-CRYSTALLOGRAPHIC AND
REMARK 350 CRYSTALLOGRAPHIC OPERATIONS ARE GIVEN.
REMARK 350
REMARK 350 BIOMOLECULE: 1
REMARK 350 SOFTWARE DETERMINED QUATERNARY STRUCTURE: MONOMERIC
REMARK 350 SOFTWARE USED: PISA
REMARK 350 SURFACE AREA OF THE MONOMER: 7802 ANGSTROM**2
REMARK 350 FREE ENERGY OF FOLDING: -155.2 KCAL/MOL
REMARK 350 APPLY THE FOLLOWING TO CHAINS: A,C
REMARK 350   BIOMT1   1  1.000000  0.000000  0.000000        0.00000
REMARK 350   BIOMT2   1  0.000000  1.000000  0.000000        0.00000
REMARK 350   BIOMT3   1  0.000000  0.000000  1.000000        0.00000
REMARK 350
REMARK 350 BIOMOLECULE: 2
REMARK 350 SOFTWARE DETERMINED QUATERNARY STRUCTURE: MONOMERIC
REMARK 350 SOFTWARE USED: PISA
REMARK 350 SURFACE AREA OF THE MONOMER: 8102 ANGSTROM**2
REMARK 350 FREE ENERGY OF FOLDING: -156.5 KCAL/MOL
REMARK 350 APPLY THE FOLLOWING TO CHAINS: B,C
REMARK 350   BIOMT1   1  1.000000  0.000000  0.000000        0.00000
REMARK 350   BIOMT2   1  0.000000  1.000000  0.000000        0.00000
REMARK 350   BIOMT3   1  0.000000  0.000000  1.000000        0.00000
CRYST1   89.065   89.065   39.377  90.00  90.00  90.00 P 43                     


$$$$
SARS2_Mac1A-A1155
  PyMOL3.0          3D                             0

 30 32  0  0  0  0  0  0  0  0999 V2000
   -0.5700   13.8210   -3.7310 N   0  0  0  0  0  0  0  0  0  0  0  0
    1.4360   12.1490   -2.9480 C   0  0  0  0  0  0  0  0  0  0  0  0
    1.3420   12.8150   -1.9640 O   0  0  0  0  0  0  0  0  0  0  0  0
    1.5510   12.7720   -4.3080 C   0  0  0  0  0  0  0  0  0  0  0  0
   -5.0000   15.5180    0.5710 N   0  0  0  0  0  0  0  0  0  0  0  0
    1.2680   10.8560   -2.9580 O   0  0  0  0  0  0  0  0  0  0  0  0
    0.1530   13.1490   -4.8170 C   0  0  0  0  0  0  0  0  0  0  0  0
   -6.8770   15.1090    1.8350 N   0  0  0  0  0  0  0  0  0  0  0  0
   -2.1130   14.7090   -5.1010 O   0  0  0  0  0  0  0  0  0  0  0  0
   -1.7000   14.5090   -3.9600 C   0  0  0  0  0  0  0  0  0  0  0  0
   -7.0440   15.1660   -0.4160 O   0  0  0  0  0  0  0  0  0  0  0  0
   -2.4810   14.9740   -2.7740 C   0  0  0  0  0  0  0  0  0  0  0  0
   -3.8020   15.3820   -2.9590 C   0  0  0  0  0  0  0  0  0  0  0  0
   -4.6330   15.6120   -1.8770 C   0  0  0  0  0  0  0  0  0  0  0  0
   -4.1590   15.4430   -0.5760 C   0  0  0  0  0  0  0  0  0  0  0  0
   -6.3420   15.1950    0.5960 C   0  0  0  0  0  0  0  0  0  0  0  0
   -8.2420   14.6100    2.0220 C   0  0  0  0  0  0  0  0  0  0  0  0
   -8.9300   14.8810    3.3040 C   0  0  0  0  0  0  0  0  0  0  0  0
   -9.3630   15.5770    2.0610 C   0  0  0  0  0  0  0  0  0  0  0  0
   -2.8200   15.0940   -0.3900 C   0  0  0  0  0  0  0  0  0  0  0  0
   -1.9980   14.8630   -1.4760 C   0  0  0  0  0  0  0  0  0  0  0  0
   -0.5650   11.9280   -5.3830 C   0  0  0  0  0  0  0  0  0  0  0  0
   -1.6380   11.3470   -4.7150 C   0  0  0  0  0  0  0  0  0  0  0  0
   -2.2890   10.2420   -5.2440 C   0  0  0  0  0  0  0  0  0  0  0  0
   -1.8520    9.6780   -6.4300 C   0  0  0  0  0  0  0  0  0  0  0  0
   -0.7680   10.2170   -7.1060 C   0  0  0  0  0  0  0  0  0  0  0  0
   -0.3490    9.5190   -8.3780 C   0  0  0  0  0  0  0  0  0  0  0  0
   -0.1520   11.3580   -6.5890 C   0  0  0  0  0  0  0  0  0  0  0  0
    1.0120    9.4470   -8.4660 F   0  0  0  0  0  0  0  0  0  0  0  0
   -0.6810   10.2430   -9.4130 F   0  0  0  0  0  0  0  0  0  0  0  0
  1 10  1  0  0  0  0
  2  3  4  0  0  0  0
  2  6  4  0  0  0  0
  2  4  1  0  0  0  0
  5 16  1  0  0  0  0
  1  7  1  0  0  0  0
  4  7  1  0  0  0  0
  8 17  1  0  0  0  0
  9 10  2  0  0  0  0
 10 12  1  0  0  0  0
 12 13  4  0  0  0  0
 12 21  4  0  0  0  0
 13 14  4  0  0  0  0
  5 15  1  0  0  0  0
 14 15  4  0  0  0  0
  8 16  1  0  0  0  0
 11 16  2  0  0  0  0
 17 18  1  0  0  0  0
 17 19  1  0  0  0  0
 18 19  1  0  0  0  0
 15 20  4  0  0  0  0
 20 21  4  0  0  0  0
  7 22  1  0  0  0  0
 22 23  4  0  0  0  0
 23 24  4  0  0  0  0
 24 25  4  0  0  0  0
 25 26  4  0  0  0  0
 26 28  4  0  0  0  0
 26 27  1  0  0  0  0
 27 29  1  0  0  0  0
 22 28  4  0  0  0  0
 27 30  1  0  0  0  0
M  END
>  <pdb_header>
HEADER    ----                                    18-MAY-20                     
TITLE     ---                                                                   
EXPDTA    X-RAY DIFFRACTION                                                     
REMARK --------------------- added by autoBUSTER ---------------------------------START
REMARK run at   = Wed Apr 19 13:57:06 BST 2023
REMARK     in   = /dls/labxchem/data/lb32627/lb32627-1/processing/analysis/model_building/SARS2_Mac1A-A1155
REMARK     user = dcn76311
REMARK     cmd  = \
REMARK            /dls_sw/apps/GPhL/BUSTER/20230217/autoBUSTER/bin/linux64/refine \
REMARK            -p \
REMARK            /dls/labxchem/data/lb32627/lb32627-1/processing/analysis/model_building/SARS2_Mac1A-A1155/cootOut/Refi
REMARK            -m \
REMARK            /dls/labxchem/data/lb32627/lb32627-1/processing/analysis/model_building/SARS2_Mac1A-A1155/SARS2_Mac1A-
REMARK            -l \
REMARK            /dls/labxchem/data/lb32627/lb32627-1/processing/analysis/model_building/SARS2_Mac1A-A1155/ASAP-0008304
REMARK            -autoncs -M TLSbasic -d Refine_13
REMARK Files used:
REMARK   PDB              = Refine_13/pdbchk.pdb
REMARK   MTZ              = /dls/labxchem/data/lb32627/lb32627-1/processing/analysis/model_building/SARS2_Mac1A-A1155/SA
REMARK output written to subdirectory = Refine_13
REMARK best refinement for F,SIGF with R/Rfree 0.1931/0.2143
REMARK header records are copied from input PDB file (apart from REMARK 3!)
REMARK --------------------- added by autoBUSTER -----------------------------------END
REMARK --------------------- added by autoBUSTER -------------------------------
REMARK run at   = Mon Apr 17 13:13:01 BST 2023                                  
REMARK     in   = /dls/labxchem/data/lb32627/lb32627-1/processing/analysis/model
REMARK     user = dcn76311                                                      
REMARK     cmd  = \                                                             
REMARK            /dls_sw/apps/GPhL/BUSTER/20230217/autoBUSTER/bin/linux64/refin
REMARK            -p \                                                          
REMARK            /dls/labxchem/data/lb32627/lb32627-1/processing/analysis/model
REMARK            -m \                                                          
REMARK            /dls/labxchem/data/lb32627/lb32627-1/processing/analysis/model
REMARK            -l \                                                          
REMARK            /dls/labxchem/data/lb32627/lb32627-1/processing/analysis/model
REMARK            -autoncs -M TLSbasic -d Refine_12                             
REMARK Files used:                                                              
REMARK   PDB              = Refine_12/pdbchk.pdb                                
REMARK   MTZ              = /dls/labxchem/data/lb32627/lb32627-1/processing/anal
REMARK output written to subdirectory = Refine_12                               
REMARK best refinement for F,SIGF with R/Rfree 0.1931/0.2142                    
REMARK header records are copied from input PDB file (apart from REMARK 3!)     
REMARK --------------------- added by autoBUSTER -------------------------------
REMARK --------------------- added by autoBUSTER -------------------------------
REMARK run at   = Mon Apr 17 12:45:52 BST 2023                                  
REMARK     in   = /dls/labxchem/data/lb32627/lb32627-1/processing/analysis/model
REMARK     user = dcn76311                                                      
REMARK     cmd  = \                                                             
REMARK            /dls_sw/apps/GPhL/BUSTER/20230217/autoBUSTER/bin/linux64/refin
REMARK            -p \                                                          
REMARK            /dls/labxchem/data/lb32627/lb32627-1/processing/analysis/model
REMARK            -m \                                                          
REMARK            /dls/labxchem/data/lb32627/lb32627-1/processing/analysis/model
REMARK            -l \                                                          
REMARK            /dls/labxchem/data/lb32627/lb32627-1/processing/analysis/model
REMARK            -autoncs -M TLSbasic -d Refine_11                             
REMARK Files used:                                                              
REMARK   PDB              = Refine_11/pdbchk.pdb                                
REMARK   MTZ              = /dls/labxchem/data/lb32627/lb32627-1/processing/anal
REMARK output written to subdirectory = Refine_11                               
REMARK best refinement for F,SIGF with R/Rfree 0.1934/0.2146                    
REMARK header records are copied from input PDB file (apart from REMARK 3!)     
REMARK --------------------- added by autoBUSTER -------------------------------
REMARK --------------------- added by autoBUSTER -------------------------------
REMARK run at   = Fri Feb 17 10:53:38 GMT 2023                                  
REMARK     in   = /dls/labxchem/data/lb32627/lb32627-1/processing/analysis/model
REMARK     user = dcn76311                                                      
REMARK     cmd  = \                                                             
REMARK            /dls_sw/apps/GPhL/BUSTER/20221121/autoBUSTER/bin/linux64/refin
REMARK            -p \                                                          
REMARK            /dls/labxchem/data/lb32627/lb32627-1/processing/analysis/model
REMARK            -m \                                                          
REMARK            /dls/labxchem/data/lb32627/lb32627-1/processing/analysis/model
REMARK            -l \                                                          
REMARK            /dls/labxchem/data/lb32627/lb32627-1/processing/analysis/model
REMARK            -autoncs -M TLSbasic -d Refine_10                             
REMARK Files used:                                                              
REMARK   PDB              = Refine_10/pdbchk.pdb                                
REMARK   MTZ              = /dls/labxchem/data/lb32627/lb32627-1/processing/anal
REMARK output written to subdirectory = Refine_10                               
REMARK best refinement for F,SIGF with R/Rfree 0.1934/0.2139                    
REMARK header records are copied from input PDB file (apart from REMARK 3!)     
REMARK --------------------- added by autoBUSTER -------------------------------
REMARK --------------------- added by autoBUSTER -------------------------------
REMARK run at   = Fri Feb 17 10:17:56 GMT 2023                                  
REMARK     in   = /dls/labxchem/data/lb32627/lb32627-1/processing/analysis/model
REMARK     user = dcn76311                                                      
REMARK     cmd  = \                                                             
REMARK            /dls_sw/apps/GPhL/BUSTER/20221121/autoBUSTER/bin/linux64/refin
REMARK            -p \                                                          
REMARK            /dls/labxchem/data/lb32627/lb32627-1/processing/analysis/model
REMARK            -m \                                                          
REMARK            /dls/labxchem/data/lb32627/lb32627-1/processing/analysis/model
REMARK            -l \                                                          
REMARK            /dls/labxchem/data/lb32627/lb32627-1/processing/analysis/model
REMARK            -autoncs -M TLSbasic -d Refine_9                              
REMARK Files used:                                                              
REMARK   PDB              = Refine_9/pdbchk.pdb                                 
REMARK   MTZ              = /dls/labxchem/data/lb32627/lb32627-1/processing/anal
REMARK output written to subdirectory = Refine_9                                
REMARK best refinement for F,SIGF with R/Rfree 0.1934/0.2133                    
REMARK header records are copied from input PDB file (apart from REMARK 3!)     
REMARK --------------------- added by autoBUSTER -------------------------------
REMARK --------------------- added by autoBUSTER -------------------------------
REMARK run at   = Fri Feb 17 09:03:14 GMT 2023                                  
REMARK     in   = /dls/labxchem/data/lb32627/lb32627-1/processing/analysis/model
REMARK     user = dcn76311                                                      
REMARK     cmd  = \                                                             
REMARK            /dls_sw/apps/GPhL/BUSTER/20221121/autoBUSTER/bin/linux64/refin
REMARK            -p \                                                          
REMARK            /dls/labxchem/data/lb32627/lb32627-1/processing/analysis/model
REMARK            -m \                                                          
REMARK            /dls/labxchem/data/lb32627/lb32627-1/processing/analysis/model
REMARK            -l \                                                          
REMARK            /dls/labxchem/data/lb32627/lb32627-1/processing/analysis/model
REMARK            -autoncs -M TLSbasic -d Refine_8                              
REMARK Files used:                                                              
REMARK   PDB              = Refine_8/pdbchk.pdb                                 
REMARK   MTZ              = /dls/labxchem/data/lb32627/lb32627-1/processing/anal
REMARK output written to subdirectory = Refine_8                                
REMARK best refinement for F,SIGF with R/Rfree 0.1936/0.2144                    
REMARK header records are copied from input PDB file (apart from REMARK 3!)     
REMARK --------------------- added by autoBUSTER -------------------------------
REMARK --------------------- added by autoBUSTER -------------------------------
REMARK run at   = Thu Feb 16 14:47:53 GMT 2023                                  
REMARK     in   = /dls/labxchem/data/lb32627/lb32627-1/processing/analysis/model
REMARK     user = dcn76311                                                      
REMARK     cmd  = \                                                             
REMARK            /dls_sw/apps/GPhL/BUSTER/20221121/autoBUSTER/bin/linux64/refin
REMARK            -p \                                                          
REMARK            /dls/labxchem/data/lb32627/lb32627-1/processing/analysis/model
REMARK            -m \                                                          
REMARK            /dls/labxchem/data/lb32627/lb32627-1/processing/analysis/model
REMARK            -l \                                                          
REMARK            /dls/labxchem/data/lb32627/lb32627-1/processing/analysis/model
REMARK            -autoncs -M TLSbasic -d Refine_7                              
REMARK Files used:                                                              
REMARK   PDB              = Refine_7/pdbchk.pdb                                 
REMARK   MTZ              = /dls/labxchem/data/lb32627/lb32627-1/processing/anal
REMARK output written to subdirectory = Refine_7                                
REMARK best refinement for F,SIGF with R/Rfree 0.1936/0.2142                    
REMARK header records are copied from input PDB file (apart from REMARK 3!)     
REMARK --------------------- added by autoBUSTER -------------------------------
REMARK --------------------- added by autoBUSTER -------------------------------
REMARK run at   = Thu Feb 16 13:56:44 GMT 2023                                  
REMARK     in   = /dls/labxchem/data/lb32627/lb32627-1/processing/analysis/model
REMARK     user = dcn76311                                                      
REMARK     cmd  = \                                                             
REMARK            /dls_sw/apps/GPhL/BUSTER/20221121/autoBUSTER/bin/linux64/refin
REMARK            -p \                                                          
REMARK            /dls/labxchem/data/lb32627/lb32627-1/processing/analysis/model
REMARK            -m \                                                          
REMARK            /dls/labxchem/data/lb32627/lb32627-1/processing/analysis/model
REMARK            -l \                                                          
REMARK            /dls/labxchem/data/lb32627/lb32627-1/processing/analysis/model
REMARK            -autoncs -M TLSbasic -d Refine_6                              
REMARK Files used:                                                              
REMARK   PDB              = Refine_6/pdbchk.pdb                                 
REMARK   MTZ              = /dls/labxchem/data/lb32627/lb32627-1/processing/anal
REMARK output written to subdirectory = Refine_6                                
REMARK best refinement for F,SIGF with R/Rfree 0.1941/0.2148                    
REMARK header records are copied from input PDB file (apart from REMARK 3!)     
REMARK --------------------- added by autoBUSTER -------------------------------
REMARK --------------------- added by autoBUSTER -------------------------------
REMARK run at   = Wed Feb 15 14:34:38 GMT 2023                                  
REMARK     in   = /dls/labxchem/data/lb32627/lb32627-1/processing/analysis/model
REMARK     user = dcn76311                                                      
REMARK     cmd  = \                                                             
REMARK            /dls_sw/apps/GPhL/BUSTER/20221121/autoBUSTER/bin/linux64/refin
REMARK            -p \                                                          
REMARK            /dls/labxchem/data/lb32627/lb32627-1/processing/analysis/model
REMARK            -m \                                                          
REMARK            /dls/labxchem/data/lb32627/lb32627-1/processing/analysis/model
REMARK            -l \                                                          
REMARK            /dls/labxchem/data/lb32627/lb32627-1/processing/analysis/model
REMARK            -autoncs -M TLSbasic -d Refine_5                              
REMARK Files used:                                                              
REMARK   PDB              = Refine_5/pdbchk.pdb                                 
REMARK   MTZ              = /dls/labxchem/data/lb32627/lb32627-1/processing/anal
REMARK output written to subdirectory = Refine_5                                
REMARK best refinement for F,SIGF with R/Rfree 0.1959/0.2162                    
REMARK header records are copied from input PDB file (apart from REMARK 3!)     
REMARK --------------------- added by autoBUSTER -------------------------------
REMARK --------------------- added by autoBUSTER -------------------------------
REMARK run at   = Wed Feb 15 09:17:56 GMT 2023                                  
REMARK     in   = /dls/labxchem/data/lb32627/lb32627-1/processing/analysis/model
REMARK     user = dcn76311                                                      
REMARK     cmd  = \                                                             
REMARK            /dls_sw/apps/GPhL/BUSTER/20221121/autoBUSTER/bin/linux64/refin
REMARK            -p \                                                          
REMARK            /dls/labxchem/data/lb32627/lb32627-1/processing/analysis/model
REMARK            -m \                                                          
REMARK            /dls/labxchem/data/lb32627/lb32627-1/processing/analysis/model
REMARK            -l \                                                          
REMARK            /dls/labxchem/data/lb32627/lb32627-1/processing/analysis/model
REMARK            -autoncs -M TLSbasic -d Refine_4                              
REMARK Files used:                                                              
REMARK   PDB              = Refine_4/pdbchk.pdb                                 
REMARK   MTZ              = /dls/labxchem/data/lb32627/lb32627-1/processing/anal
REMARK output written to subdirectory = Refine_4                                
REMARK best refinement for F,SIGF with R/Rfree 0.1966/0.2168                    
REMARK header records are copied from input PDB file (apart from REMARK 3!)     
REMARK --------------------- added by autoBUSTER -------------------------------
REMARK --------------------- added by autoBUSTER -------------------------------
REMARK run at   = Mon Feb 13 14:49:49 GMT 2023                                  
REMARK     in   = /dls/labxchem/data/lb32627/lb32627-1/processing/analysis/model
REMARK     user = dcn76311                                                      
REMARK     cmd  = \                                                             
REMARK            /dls_sw/apps/GPhL/BUSTER/20221121/autoBUSTER/bin/linux64/refin
REMARK            -p \                                                          
REMARK            /dls/labxchem/data/lb32627/lb32627-1/processing/analysis/model
REMARK            -m \                                                          
REMARK            /dls/labxchem/data/lb32627/lb32627-1/processing/analysis/model
REMARK            -l \                                                          
REMARK            /dls/labxchem/data/lb32627/lb32627-1/processing/analysis/model
REMARK            -autoncs -M TLSbasic -d Refine_3                              
REMARK Files used:                                                              
REMARK   PDB              = Refine_3/pdbchk.pdb                                 
REMARK   MTZ              = /dls/labxchem/data/lb32627/lb32627-1/processing/anal
REMARK output written to subdirectory = Refine_3                                
REMARK best refinement for F,SIGF with R/Rfree 0.1964/0.2180                    
REMARK header records are copied from input PDB file (apart from REMARK 3!)     
REMARK --------------------- added by autoBUSTER -------------------------------
REMARK --------------------- added by autoBUSTER -------------------------------
REMARK run at   = Mon Feb 13 14:12:43 GMT 2023                                  
REMARK     in   = /dls/labxchem/data/lb32627/lb32627-1/processing/analysis/model
REMARK     user = dcn76311                                                      
REMARK     cmd  = \                                                             
REMARK            /dls_sw/apps/GPhL/BUSTER/20221121/autoBUSTER/bin/linux64/refin
REMARK            -p \                                                          
REMARK            /dls/labxchem/data/lb32627/lb32627-1/processing/analysis/model
REMARK            -m \                                                          
REMARK            /dls/labxchem/data/lb32627/lb32627-1/processing/analysis/model
REMARK            -l \                                                          
REMARK            /dls/labxchem/data/lb32627/lb32627-1/processing/analysis/model
REMARK            -autoncs -M TLSbasic -d Refine_2                              
REMARK Files used:                                                              
REMARK   PDB              = Refine_2/pdbchk.pdb                                 
REMARK   MTZ              = /dls/labxchem/data/lb32627/lb32627-1/processing/anal
REMARK output written to subdirectory = Refine_2                                
REMARK best refinement for F,SIGF with R/Rfree 0.1978/0.2216                    
REMARK header records are copied from input PDB file (apart from REMARK 3!)     
REMARK --------------------- added by autoBUSTER -------------------------------
REMARK --------------------- added by autoBUSTER -------------------------------
REMARK run at   = Mon Feb 13 13:36:30 GMT 2023                                  
REMARK     in   = /dls/labxchem/data/lb32627/lb32627-1/processing/analysis/model
REMARK     user = dcn76311                                                      
REMARK     cmd  = \                                                             
REMARK            /dls_sw/apps/GPhL/BUSTER/20221121/autoBUSTER/bin/linux64/refin
REMARK            -p \                                                          
REMARK            /dls/labxchem/data/lb32627/lb32627-1/processing/analysis/model
REMARK            -m \                                                          
REMARK            /dls/labxchem/data/lb32627/lb32627-1/processing/analysis/model
REMARK            -l \                                                          
REMARK            /dls/labxchem/data/lb32627/lb32627-1/processing/analysis/model
REMARK            -autoncs -M TLSbasic -d Refine_1                              
REMARK Files used:                                                              
REMARK   PDB              = Refine_1/pdbchk.pdb                                 
REMARK   MTZ              = /dls/labxchem/data/lb32627/lb32627-1/processing/anal
REMARK output written to subdirectory = Refine_1                                
REMARK best refinement for F,SIGF with R/Rfree 0.1984/0.2226                    
REMARK header records are copied from input PDB file (apart from REMARK 3!)     
REMARK --------------------- added by autoBUSTER -------------------------------
REMARK   2                                                            
REMARK   2 RESOLUTION.    1.16 ANGSTROMS.
REMARK   3
REMARK   3 REFINEMENT.
REMARK   3   PROGRAM     : BUSTER 2.10.4 (17-FEB-2023)
REMARK   3   AUTHORS     : BRICOGNE,BLANC,BRANDL,FLENSBURG,KELLER,
REMARK   3               : PACIOREK,ROVERSI,SHARFF,SMART,VONRHEIN,WOMACK;
REMARK   3               : MATTHEWS,TEN EYCK,TRONRUD
REMARK   3
REMARK   3  DATA USED IN REFINEMENT.
REMARK   3   RESOLUTION RANGE HIGH (ANGSTROMS) : 1.160
REMARK   3   RESOLUTION RANGE LOW  (ANGSTROMS) : 16.61
REMARK   3   DATA CUTOFF            (SIGMA(F)) : 0.000
REMARK   3   COMPLETENESS FOR RANGE        (%) : 81.8
REMARK   3   NUMBER OF REFLECTIONS             : 87306
REMARK   3
REMARK   3  FIT TO DATA USED IN REFINEMENT.
REMARK   3   CROSS-VALIDATION METHOD          : THROUGHOUT
REMARK   3   FREE R VALUE TEST SET SELECTION  : RANDOM
REMARK   3   R VALUE     (WORKING + TEST SET) : 0.1941
REMARK   3   R VALUE            (WORKING SET) : 0.1931
REMARK   3   FREE R VALUE                     : 0.2143
REMARK   3   FREE R VALUE TEST SET SIZE   (%) : 4.980
REMARK   3   FREE R VALUE TEST SET COUNT      : 4347
REMARK   3   ESTIMATED ERROR OF FREE R VALUE  : NULL
REMARK   3
REMARK   3  FIT IN THE HIGHEST RESOLUTION BIN.
REMARK   3   TOTAL NUMBER OF BINS USED           : 51
REMARK   3   BIN RESOLUTION RANGE HIGH       (A) : 1.16
REMARK   3   BIN RESOLUTION RANGE LOW        (A) : 1.22
REMARK   3   BIN COMPLETENESS (WORKING+TEST) (%) : 11.86
REMARK   3   REFLECTIONS IN BIN   (WORKING+TEST) : 1747
REMARK   3   BIN R VALUE          (WORKING+TEST) : 0.4616
REMARK   3   REFLECTIONS IN BIN    (WORKING SET) : 1649
REMARK   3   BIN R VALUE           (WORKING SET) : 0.4629
REMARK   3   BIN FREE R VALUE                    : 0.4405
REMARK   3   BIN FREE R VALUE TEST SET SIZE  (%) : 5.61
REMARK   3   BIN FREE R VALUE TEST SET COUNT     : 98
REMARK   3   ESTIMATED ERROR OF BIN FREE R VALUE : NULL
REMARK   3
REMARK   3  NUMBER OF NON-HYDROGEN ATOMS USED IN REFINEMENT.
REMARK   3   PROTEIN ATOMS            : 2534
REMARK   3   NUCLEIC ACID ATOMS       : 0
REMARK   3   HETEROGEN ATOMS          : 30
REMARK   3   SOLVENT ATOMS            : 436
REMARK   3
REMARK   3  B VALUES.
REMARK   3   FROM WILSON PLOT           (A**2) : 11.84
REMARK   3   MEAN B VALUE      (OVERALL, A**2) : 18.17
REMARK   3   OVERALL ANISOTROPIC B VALUE.
REMARK   3    B11 (A**2) : 2.31460
REMARK   3    B22 (A**2) : 2.31460
REMARK   3    B33 (A**2) : -4.62920
REMARK   3    B12 (A**2) : 0.00000
REMARK   3    B13 (A**2) : 0.00000
REMARK   3    B23 (A**2) : 0.00000
REMARK   3
REMARK   3  ESTIMATED COORDINATE ERROR.
REMARK   3   ESD FROM LUZZATI PLOT                    (A) : 0.18
REMARK   3   DPI (BLOW EQ-10) BASED ON R VALUE        (A) : 0.051
REMARK   3   DPI (BLOW EQ-9) BASED ON FREE R VALUE    (A) : 0.052
REMARK   3   DPI (CRUICKSHANK) BASED ON R VALUE       (A) : 0.048
REMARK   3   DPI (CRUICKSHANK) BASED ON FREE R VALUE  (A) : 0.050
REMARK   3
REMARK   3   REFERENCES: BLOW, D. (2002) ACTA CRYST D58, 792-797
REMARK   3               CRUICKSHANK, D.W.J. (1999) ACTA CRYST D55, 583-601
REMARK   3
REMARK   3  CORRELATION COEFFICIENTS.
REMARK   3   CORRELATION COEFFICIENT FO-FC      : 0.958
REMARK   3   CORRELATION COEFFICIENT FO-FC FREE : 0.954
REMARK   3
REMARK   3  X-RAY WEIGHT : 5.95
REMARK   3
REMARK   3  GEOMETRY FUNCTION.                                                  
REMARK   3   RESTRAINT LIBRARIES.                                               
REMARK   3    NUMBER OF LIBRARIES USED :   8                                    
REMARK   3    LIBRARY  1 : protgeo_eh99.dat (V1.6.4.20) 20220523  STANDARD      
REMARK   3                 AMINO ACID DICTIONARY. BONDS AND ANGLES FROM         
REMARK   3                 ENGH AND HUBER EH99. OTHER VALUES BASED ON           
REMARK   3                 PREVIOUS TNT OR TAKEN FROM CCP4. INCLUDES            
REMARK   3                 HYDROGEN ATOMS.                                      
REMARK   3    LIBRARY  2 : exoticaa.dat (V1.3.4.16) 20220523  COLLECTION        
REMARK   3                 OF NON-STANDARD AMINO ACIDS, MAINLY EH91             
REMARK   3                 WITHOUT IDEAL DISTANCE INFO                          
REMARK   3    LIBRARY  3 : nuclgeo.dat (V1.13.4.9) 20221011                     
REMARK   3    LIBRARY  4 : bcorrel.dat (V1.15.10.2) 20190616                    
REMARK   3    LIBRARY  5 : contact.dat (V1.15.12.10) 20191121                   
REMARK   3    LIBRARY  6 : idealdist_contact.dat (V1.3.4.13) 20220125           
REMARK   3                 IDEAL-DISTANCE CONTACT TERM DATA AS USED IN          
REMARK   3                 PROLSQ. VALUES USED HERE ARE BASED ON DATA           
REMARK   3                 HARVESTING OF PDB AS OF 20190109.                    
REMARK   3    LIBRARY  7 : restraints for LIG (unknown) from cif                
REMARK   3                 dictionary ASAP-0008304-001.cif; generated by        
REMARK   3                 GRADE 1.2.21 (Feb 03 2022) from SMILES               
REMARK   3                 O=C(O)C[C@H](NC(=O)c1ccc(NC(=O)NC2CC2)cc1)c1cccc     
REMARK   3                 (C(F)F)c1 using MOGUL 1.8.5(274361), CSD             
REMARK   3                 as541be, with quantum mechanics RM1                  
REMARK   3    LIBRARY  8 : assume.dat (V1.9.4.3) 20221011                       
REMARK   3                                                                      
REMARK   3   NUMBER OF GEOMETRIC FUNCTION TERMS DEFINED : 15                    
REMARK   3   TERM                          COUNT    WEIGHT   FUNCTION.          
REMARK   3    BOND LENGTHS              :   2663 ;   2.00 ;  HARMONIC           
REMARK   3    BOND ANGLES               :   3633 ;   2.00 ;  HARMONIC           
REMARK   3    TORSION ANGLES            :    914 ;   2.00 ;  SINUSOIDAL         
REMARK   3    TRIGONAL CARBON PLANES    :   NULL ;   NULL ;  NULL               
REMARK   3    GENERAL PLANES            :    481 ;   5.00 ;  HARMONIC           
REMARK   3    ISOTROPIC THERMAL FACTORS :   2663 ;  10.00 ;  HARMONIC           
REMARK   3    BAD NON-BONDED CONTACTS   :   NULL ;   NULL ;  NULL               
REMARK   3    IMPROPER TORSIONS         :   NULL ;   NULL ;  NULL               
REMARK   3    PSEUDOROTATION ANGLES     :   NULL ;   NULL ;  NULL               
REMARK   3    CHIRAL IMPROPER TORSION   :    342 ;   5.00 ;  SEMIHARMONIC       
REMARK   3    SUM OF OCCUPANCIES        :   NULL ;   NULL ;  NULL               
REMARK   3    UTILITY DISTANCES         :   NULL ;   NULL ;  NULL               
REMARK   3    UTILITY ANGLES            :   NULL ;   NULL ;  NULL               
REMARK   3    UTILITY TORSION           :   NULL ;   NULL ;  NULL               
REMARK   3    IDEAL-DIST CONTACT TERM   :   2696 ;   4.00 ;  SEMIHARMONIC       
REMARK   3                                                                      
REMARK   3   RMS DEVIATIONS FROM IDEAL VALUES.                                  
REMARK   3   BOND LENGTHS                       (A) : 0.014                     
REMARK   3   BOND ANGLES                  (DEGREES) : 1.17                      
REMARK   3   PEPTIDE OMEGA TORSION ANGLES (DEGREES) : 4.79                      
REMARK   3   OTHER TORSION ANGLES         (DEGREES) : 14.27                     
REMARK   3                                                                      
REMARK   3   SIMILARITY.                                                        
REMARK   3    NCS.                                                              
REMARK   3     NCS METHOD: RESTRAINT LSSR (-AUTONCS)                            
REMARK   3    TARGET RESTRAINTS.                                                
REMARK   3     TARGET REPRESENTATION : NONE                                     
REMARK   3     TARGET STRUCTURE : NULL                                          
REMARK   3                                                                      
REMARK   3  TLS DETAILS.                                                        
REMARK   3   NUMBER OF TLS GROUPS  :            2                               
REMARK   3                                                                      
REMARK   3   TLS GROUP :            1                                           
REMARK   3    SET : { A|* }                                                     
REMARK   3    ORIGIN FOR THE GROUP (A):    4.1387   21.5063   -0.3421           
REMARK   3    T TENSOR                                                          
REMARK   3     T11:   -0.0042 T22:   -0.0118                                    
REMARK   3     T33:   -0.0024 T12:   -0.0017                                    
REMARK   3     T13:   -0.0157 T23:    0.0076                                    
REMARK   3    L TENSOR                                                          
REMARK   3     L11:    0.3884 L22:    0.4515                                    
REMARK   3     L33:    0.0841 L12:    0.0099                                    
REMARK   3     L13:    0.0078 L23:   -0.0473                                    
REMARK   3    S TENSOR                                                          
REMARK   3     S11:    0.0083 S12:   -0.0011 S13:   -0.0383                     
REMARK   3     S21:    0.0125 S22:   -0.0164 S23:   -0.0326                     
REMARK   3     S31:   -0.0121 S32:   -0.0072 S33:    0.0081                     
REMARK   3                                                                      
REMARK   3   TLS GROUP :            2                                           
REMARK   3    SET : { B|* }                                                     
REMARK   3    ORIGIN FOR THE GROUP (A):   22.4905   43.4402   -7.6625           
REMARK   3    T TENSOR                                                          
REMARK   3     T11:   -0.0108 T22:   -0.0040                                    
REMARK   3     T33:   -0.0301 T12:    0.0032                                    
REMARK   3     T13:   -0.0016 T23:   -0.0026                                    
REMARK   3    L TENSOR                                                          
REMARK   3     L11:    1.0247 L22:    0.9309                                    
REMARK   3     L33:    0.1170 L12:   -0.3672                                    
REMARK   3     L13:   -0.2131 L23:    0.1091                                    
REMARK   3    S TENSOR                                                          
REMARK   3     S11:    0.0693 S12:   -0.0073 S13:    0.0010                     
REMARK   3     S21:   -0.0287 S22:   -0.0434 S23:   -0.0496                     
REMARK   3     S31:   -0.0169 S32:    0.0158 S33:   -0.0259                     
REMARK   3                                                                      
REMARK   3  REFINEMENT NOTES.                                                   
REMARK   3   NUMBER OF REFINEMENT NOTES :   1                                   
REMARK   3   NOTE   1 : IDEAL-DIST CONTACT TERM CONTACT SETUP. ALL ATOMS        
REMARK   3               HAVE CCP4 ATOM TYPE FROM LIBRARY                       
REMARK   3
REMARK   3  OTHER REFINEMENT REMARKS: NULL
REMARK   3
REMARK 290                                                            
REMARK 290 CRYSTALLOGRAPHIC SYMMETRY                                  
REMARK 290 SYMMETRY OPERATORS FOR SPACE GROUP: P 43                   
REMARK 290                                                            
REMARK 290      SYMOP   SYMMETRY                                      
REMARK 290     NNNMMM   OPERATOR                                      
REMARK 290       1555   X,Y,Z                                         
REMARK 290       2555   -X,-Y,1/2+Z                                   
REMARK 290       3555   -Y,X,3/4+Z                                    
REMARK 290       4555   Y,-X,1/4+Z                                    
REMARK 290                                                            
REMARK 290     WHERE NNN -> OPERATOR NUMBER                           
REMARK 290           MMM -> TRANSLATION VECTOR                        
REMARK 290                                                            
REMARK 290 CRYSTALLOGRAPHIC SYMMETRY TRANSFORMATIONS                  
REMARK 290 THE FOLLOWING TRANSFORMATIONS OPERATE ON THE ATOM/HETATM   
REMARK 290 RECORDS IN THIS ENTRY TO PRODUCE CRYSTALLOGRAPHICALLY      
REMARK 290 RELATED MOLECULES.                                         
REMARK 290   SMTRY1   1  1.000000  0.000000  0.000000        0.00000
REMARK 290   SMTRY2   1  0.000000  1.000000  0.000000        0.00000
REMARK 290   SMTRY3   1  0.000000  0.000000  1.000000        0.00000
REMARK 290   SMTRY1   2 -1.000000  0.000000  0.000000        0.00000
REMARK 290   SMTRY2   2  0.000000 -1.000000  0.000000        0.00000
REMARK 290   SMTRY3   2  0.000000  0.000000  1.000000       19.53500
REMARK 290   SMTRY1   3  0.000000 -1.000000  0.000000        0.00000
REMARK 290   SMTRY2   3  1.000000  0.000000  0.000000        0.00000
REMARK 290   SMTRY3   3  0.000000  0.000000  1.000000       29.30250
REMARK 290   SMTRY1   4  0.000000  1.000000  0.000000        0.00000
REMARK 290   SMTRY2   4 -1.000000  0.000000  0.000000        0.00000
REMARK 290   SMTRY3   4  0.000000  0.000000  1.000000        9.76750
REMARK 290                                                            
REMARK 290 REMARK: NULL                                               
REMARK 300
REMARK 300 BIOMOLECULE: 1, 2
REMARK 300 SEE REMARK 350 FOR THE AUTHOR PROVIDED AND/OR PROGRAM
REMARK 300 GENERATED ASSEMBLY INFORMATION FOR THE STRUCTURE IN
REMARK 300 THIS ENTRY. THE REMARK MAY ALSO  PROVIDE INFORMATION ON
REMARK 300 BURIED SURFACE AREA.
REMARK 350
REMARK 350 COORDINATES FOR A COMPLETE MULTIMER REPRESENTING THE KNOWN
REMARK 350 BIOLOGICALLY SIGNIFICANT OLIGOMERIZATION STATE OF THE
REMARK 350 MOLECULE CAN BE GENERATED BY APPLYING BIOMT TRANSFORMATIONS
REMARK 350 GIVEN BELOW. BOTH NON-CRYSTALLOGRAPHIC AND
REMARK 350 CRYSTALLOGRAPHIC OPERATIONS ARE GIVEN.
REMARK 350
REMARK 350 BIOMOLECULE: 1
REMARK 350 SOFTWARE DETERMINED QUATERNARY STRUCTURE: MONOMERIC
REMARK 350 SOFTWARE USED: PISA
REMARK 350 SURFACE AREA OF THE MONOMER: 7967 ANGSTROM**2
REMARK 350 FREE ENERGY OF FOLDING: -156.7 KCAL/MOL
REMARK 350 APPLY THE FOLLOWING TO CHAINS: A,W
REMARK 350   BIOMT1   1  1.000000  0.000000  0.000000        0.00000
REMARK 350   BIOMT2   1  0.000000  1.000000  0.000000        0.00000
REMARK 350   BIOMT3   1  0.000000  0.000000  1.000000        0.00000
REMARK 350
REMARK 350 BIOMOLECULE: 2
REMARK 350 SOFTWARE DETERMINED QUATERNARY STRUCTURE: MONOMERIC
REMARK 350 SOFTWARE USED: PISA
REMARK 350 SURFACE AREA OF THE MONOMER: 8128 ANGSTROM**2
REMARK 350 FREE ENERGY OF FOLDING: -159.5 KCAL/MOL
REMARK 350 APPLY THE FOLLOWING TO CHAINS: B,W
REMARK 350   BIOMT1   1  1.000000  0.000000  0.000000        0.00000
REMARK 350   BIOMT2   1  0.000000  1.000000  0.000000        0.00000
REMARK 350   BIOMT3   1  0.000000  0.000000  1.000000        0.00000
CRYST1   89.308   89.308   39.070  90.00  90.00  90.00 P 43                     


$$$$
SARS2_Mac1A-A1179
  PyMOL3.0          3D                             0

 17 18  0  0  0  0  0  0  0  0999 V2000
   -0.7510   14.3300   -2.3970 N   0  0  0  0  0  0  0  0  0  0  0  0
    2.2610   13.3530   -4.5490 C   0  0  0  0  0  0  0  0  0  0  0  0
    0.3520   11.2260   -2.3330 O   0  0  0  0  0  0  0  0  0  0  0  0
    0.9830   14.1020   -4.2150 C   0  0  0  0  0  0  0  0  0  0  0  0
    0.1830   14.4220   -0.2590 N   0  0  0  0  0  0  0  0  0  0  0  0
   -0.8580   11.8030   -4.0970 O   0  0  0  0  0  0  0  0  0  0  0  0
    1.2580   15.5960   -4.1070 C   0  0  0  0  0  0  0  0  0  0  0  0
   -1.0650   15.1150    1.6980 N   0  0  0  0  0  0  0  0  0  0  0  0
    0.3430   13.5310   -2.9280 C   0  0  0  0  0  0  0  0  0  0  0  0
   -3.3580   15.7470    1.2480 N   0  0  0  0  0  0  0  0  0  0  0  0
   -0.8830   14.6380   -1.0690 C   0  0  0  0  0  0  0  0  0  0  0  0
    0.0240   14.6840    1.0480 C   0  0  0  0  0  0  0  0  0  0  0  0
   -2.1180   15.2970    0.8780 C   0  0  0  0  0  0  0  0  0  0  0  0
   -4.1250   15.8680    0.1110 C   0  0  0  0  0  0  0  0  0  0  0  0
   -3.4150   15.4860   -0.9810 C   0  0  0  0  0  0  0  0  0  0  0  0
   -2.1170   15.0990   -0.5120 C   0  0  0  0  0  0  0  0  0  0  0  0
   -0.0510   12.0700   -3.0970 C   0  0  0  0  0  0  0  0  0  0  0  0
  1 11  1  0  0  0  0
  3 17  4  0  0  0  0
  2  4  1  0  0  0  0
  4  7  1  0  0  0  0
  8 12  4  0  0  0  0
  1  9  1  0  0  0  0
  4  9  1  0  0  0  0
 10 13  4  0  0  0  0
  5 11  4  0  0  0  0
 11 16  4  0  0  0  0
  5 12  4  0  0  0  0
  8 13  4  0  0  0  0
 10 14  4  0  0  0  0
 14 15  4  0  0  0  0
 13 16  4  0  0  0  0
 15 16  4  0  0  0  0
  6 17  4  0  0  0  0
  9 17  1  0  0  0  0
M  END
>  <pdb_header>
HEADER    ----                                    18-MAY-20                     
TITLE     ---                                                                   
EXPDTA    X-RAY DIFFRACTION                                                     
REMARK --------------------- added by autoBUSTER ---------------------------------START
REMARK run at   = Thu Mar 16 16:21:48 GMT 2023
REMARK     in   = /dls/labxchem/data/lb32627/lb32627-1/processing/analysis/model_building/SARS2_Mac1A-A1179
REMARK     user = ill13029
REMARK     cmd  = \
REMARK            /dls_sw/apps/GPhL/BUSTER/20221121/autoBUSTER/bin/linux64/refine \
REMARK            -p \
REMARK            /dls/labxchem/data/lb32627/lb32627-1/processing/analysis/model_building/SARS2_Mac1A-A1179/cootOut/Refi
REMARK            -m \
REMARK            /dls/labxchem/data/lb32627/lb32627-1/processing/analysis/model_building/SARS2_Mac1A-A1179/SARS2_Mac1A-
REMARK            -l \
REMARK            /dls/labxchem/data/lb32627/lb32627-1/processing/analysis/model_building/SARS2_Mac1A-A1179/ASAP-0008324
REMARK            -autoncs -M TLSbasic -d Refine_13
REMARK Files used:
REMARK   PDB              = Refine_13/pdbchk.pdb
REMARK   MTZ              = /dls/labxchem/data/lb32627/lb32627-1/processing/analysis/model_building/SARS2_Mac1A-A1179/SA
REMARK output written to subdirectory = Refine_13
REMARK best refinement for F,SIGF with R/Rfree 0.1886/0.2096
REMARK header records are copied from input PDB file (apart from REMARK 3!)
REMARK --------------------- added by autoBUSTER -----------------------------------END
REMARK --------------------- added by autoBUSTER -------------------------------
REMARK run at   = Sat Mar 11 10:21:48 GMT 2023                                  
REMARK     in   = /dls/labxchem/data/lb32627/lb32627-1/processing/analysis/model
REMARK     user = ill13029                                                      
REMARK     cmd  = \                                                             
REMARK            /dls_sw/apps/GPhL/BUSTER/20221121/autoBUSTER/bin/linux64/refin
REMARK            -p \                                                          
REMARK            /dls/labxchem/data/lb32627/lb32627-1/processing/analysis/model
REMARK            -m \                                                          
REMARK            /dls/labxchem/data/lb32627/lb32627-1/processing/analysis/model
REMARK            -l \                                                          
REMARK            /dls/labxchem/data/lb32627/lb32627-1/processing/analysis/model
REMARK            -autoncs -M TLSbasic -d Refine_12                             
REMARK Files used:                                                              
REMARK   PDB              = Refine_12/pdbchk.pdb                                
REMARK   MTZ              = /dls/labxchem/data/lb32627/lb32627-1/processing/anal
REMARK output written to subdirectory = Refine_12                               
REMARK best refinement for F,SIGF with R/Rfree 0.1887/0.2096                    
REMARK header records are copied from input PDB file (apart from REMARK 3!)     
REMARK --------------------- added by autoBUSTER -------------------------------
REMARK --------------------- added by autoBUSTER -------------------------------
REMARK run at   = Wed Mar  1 11:38:01 GMT 2023                                  
REMARK     in   = /dls/labxchem/data/lb32627/lb32627-1/processing/analysis/model
REMARK     user = dcn76311                                                      
REMARK     cmd  = \                                                             
REMARK            /dls_sw/apps/GPhL/BUSTER/20221121/autoBUSTER/bin/linux64/refin
REMARK            -p \                                                          
REMARK            /dls/labxchem/data/lb32627/lb32627-1/processing/analysis/model
REMARK            -m \                                                          
REMARK            /dls/labxchem/data/lb32627/lb32627-1/processing/analysis/model
REMARK            -l \                                                          
REMARK            /dls/labxchem/data/lb32627/lb32627-1/processing/analysis/model
REMARK            -autoncs -M TLSbasic -d Refine_11                             
REMARK Files used:                                                              
REMARK   PDB              = Refine_11/pdbchk.pdb                                
REMARK   MTZ              = /dls/labxchem/data/lb32627/lb32627-1/processing/anal
REMARK output written to subdirectory = Refine_11                               
REMARK best refinement for F,SIGF with R/Rfree 0.1891/0.2107                    
REMARK header records are copied from input PDB file (apart from REMARK 3!)     
REMARK --------------------- added by autoBUSTER -------------------------------
REMARK --------------------- added by autoBUSTER -------------------------------
REMARK run at   = Wed Mar  1 10:43:46 GMT 2023                                  
REMARK     in   = /dls/labxchem/data/lb32627/lb32627-1/processing/analysis/model
REMARK     user = dcn76311                                                      
REMARK     cmd  = \                                                             
REMARK            /dls_sw/apps/GPhL/BUSTER/20221121/autoBUSTER/bin/linux64/refin
REMARK            -p \                                                          
REMARK            /dls/labxchem/data/lb32627/lb32627-1/processing/analysis/model
REMARK            -m \                                                          
REMARK            /dls/labxchem/data/lb32627/lb32627-1/processing/analysis/model
REMARK            -l \                                                          
REMARK            /dls/labxchem/data/lb32627/lb32627-1/processing/analysis/model
REMARK            -autoncs -M TLSbasic -d Refine_10                             
REMARK Files used:                                                              
REMARK   PDB              = Refine_10/pdbchk.pdb                                
REMARK   MTZ              = /dls/labxchem/data/lb32627/lb32627-1/processing/anal
REMARK output written to subdirectory = Refine_10                               
REMARK best refinement for F,SIGF with R/Rfree 0.1891/0.2096                    
REMARK header records are copied from input PDB file (apart from REMARK 3!)     
REMARK --------------------- added by autoBUSTER -------------------------------
REMARK --------------------- added by autoBUSTER -------------------------------
REMARK run at   = Wed Feb 22 16:42:38 GMT 2023                                  
REMARK     in   = /dls/labxchem/data/lb32627/lb32627-1/processing/analysis/model
REMARK     user = dcn76311                                                      
REMARK     cmd  = \                                                             
REMARK            /dls_sw/apps/GPhL/BUSTER/20221121/autoBUSTER/bin/linux64/refin
REMARK            -p \                                                          
REMARK            /dls/labxchem/data/lb32627/lb32627-1/processing/analysis/model
REMARK            -m \                                                          
REMARK            /dls/labxchem/data/lb32627/lb32627-1/processing/analysis/model
REMARK            -l \                                                          
REMARK            /dls/labxchem/data/lb32627/lb32627-1/processing/analysis/model
REMARK            -autoncs -M TLSbasic -d Refine_9                              
REMARK Files used:                                                              
REMARK   PDB              = Refine_9/pdbchk.pdb                                 
REMARK   MTZ              = /dls/labxchem/data/lb32627/lb32627-1/processing/anal
REMARK output written to subdirectory = Refine_9                                
REMARK best refinement for F,SIGF with R/Rfree 0.1897/0.2119                    
REMARK header records are copied from input PDB file (apart from REMARK 3!)     
REMARK --------------------- added by autoBUSTER -------------------------------
REMARK --------------------- added by autoBUSTER -------------------------------
REMARK run at   = Wed Feb 22 15:51:03 GMT 2023                                  
REMARK     in   = /dls/labxchem/data/lb32627/lb32627-1/processing/analysis/model
REMARK     user = dcn76311                                                      
REMARK     cmd  = \                                                             
REMARK            /dls_sw/apps/GPhL/BUSTER/20221121/autoBUSTER/bin/linux64/refin
REMARK            -p \                                                          
REMARK            /dls/labxchem/data/lb32627/lb32627-1/processing/analysis/model
REMARK            -m \                                                          
REMARK            /dls/labxchem/data/lb32627/lb32627-1/processing/analysis/model
REMARK            -l \                                                          
REMARK            /dls/labxchem/data/lb32627/lb32627-1/processing/analysis/model
REMARK            -autoncs -M TLSbasic -d Refine_8                              
REMARK Files used:                                                              
REMARK   PDB              = Refine_8/pdbchk.pdb                                 
REMARK   MTZ              = /dls/labxchem/data/lb32627/lb32627-1/processing/anal
REMARK output written to subdirectory = Refine_8                                
REMARK best refinement for F,SIGF with R/Rfree 0.1901/0.2130                    
REMARK header records are copied from input PDB file (apart from REMARK 3!)     
REMARK --------------------- added by autoBUSTER -------------------------------
REMARK --------------------- added by autoBUSTER -------------------------------
REMARK run at   = Wed Feb 22 15:21:23 GMT 2023                                  
REMARK     in   = /dls/labxchem/data/lb32627/lb32627-1/processing/analysis/model
REMARK     user = dcn76311                                                      
REMARK     cmd  = \                                                             
REMARK            /dls_sw/apps/GPhL/BUSTER/20221121/autoBUSTER/bin/linux64/refin
REMARK            -p \                                                          
REMARK            /dls/labxchem/data/lb32627/lb32627-1/processing/analysis/model
REMARK            -m \                                                          
REMARK            /dls/labxchem/data/lb32627/lb32627-1/processing/analysis/model
REMARK            -l \                                                          
REMARK            /dls/labxchem/data/lb32627/lb32627-1/processing/analysis/model
REMARK            -autoncs -M TLSbasic -d Refine_7                              
REMARK Files used:                                                              
REMARK   PDB              = Refine_7/pdbchk.pdb                                 
REMARK   MTZ              = /dls/labxchem/data/lb32627/lb32627-1/processing/anal
REMARK output written to subdirectory = Refine_7                                
REMARK best refinement for F,SIGF with R/Rfree 0.1902/0.2124                    
REMARK header records are copied from input PDB file (apart from REMARK 3!)     
REMARK --------------------- added by autoBUSTER -------------------------------
REMARK --------------------- added by autoBUSTER -------------------------------
REMARK run at   = Wed Feb 22 11:48:18 GMT 2023                                  
REMARK     in   = /dls/labxchem/data/lb32627/lb32627-1/processing/analysis/model
REMARK     user = dcn76311                                                      
REMARK     cmd  = \                                                             
REMARK            /dls_sw/apps/GPhL/BUSTER/20221121/autoBUSTER/bin/linux64/refin
REMARK            -p \                                                          
REMARK            /dls/labxchem/data/lb32627/lb32627-1/processing/analysis/model
REMARK            -m \                                                          
REMARK            /dls/labxchem/data/lb32627/lb32627-1/processing/analysis/model
REMARK            -l \                                                          
REMARK            /dls/labxchem/data/lb32627/lb32627-1/processing/analysis/model
REMARK            -autoncs -M TLSbasic -d Refine_6                              
REMARK Files used:                                                              
REMARK   PDB              = Refine_6/pdbchk.pdb                                 
REMARK   MTZ              = /dls/labxchem/data/lb32627/lb32627-1/processing/anal
REMARK output written to subdirectory = Refine_6                                
REMARK best refinement for F,SIGF with R/Rfree 0.1908/0.2129                    
REMARK header records are copied from input PDB file (apart from REMARK 3!)     
REMARK --------------------- added by autoBUSTER -------------------------------
REMARK --------------------- added by autoBUSTER -------------------------------
REMARK run at   = Wed Feb 22 10:57:03 GMT 2023                                  
REMARK     in   = /dls/labxchem/data/lb32627/lb32627-1/processing/analysis/model
REMARK     user = dcn76311                                                      
REMARK     cmd  = \                                                             
REMARK            /dls_sw/apps/GPhL/BUSTER/20221121/autoBUSTER/bin/linux64/refin
REMARK            -p \                                                          
REMARK            /dls/labxchem/data/lb32627/lb32627-1/processing/analysis/model
REMARK            -m \                                                          
REMARK            /dls/labxchem/data/lb32627/lb32627-1/processing/analysis/model
REMARK            -l \                                                          
REMARK            /dls/labxchem/data/lb32627/lb32627-1/processing/analysis/model
REMARK            -autoncs -M TLSbasic -d Refine_5                              
REMARK Files used:                                                              
REMARK   PDB              = Refine_5/pdbchk.pdb                                 
REMARK   MTZ              = /dls/labxchem/data/lb32627/lb32627-1/processing/anal
REMARK output written to subdirectory = Refine_5                                
REMARK best refinement for F,SIGF with R/Rfree 0.1918/0.2135                    
REMARK header records are copied from input PDB file (apart from REMARK 3!)     
REMARK --------------------- added by autoBUSTER -------------------------------
REMARK --------------------- added by autoBUSTER -------------------------------
REMARK run at   = Wed Feb 22 09:42:32 GMT 2023                                  
REMARK     in   = /dls/labxchem/data/lb32627/lb32627-1/processing/analysis/model
REMARK     user = dcn76311                                                      
REMARK     cmd  = \                                                             
REMARK            /dls_sw/apps/GPhL/BUSTER/20221121/autoBUSTER/bin/linux64/refin
REMARK            -p \                                                          
REMARK            /dls/labxchem/data/lb32627/lb32627-1/processing/analysis/model
REMARK            -m \                                                          
REMARK            /dls/labxchem/data/lb32627/lb32627-1/processing/analysis/model
REMARK            -l \                                                          
REMARK            /dls/labxchem/data/lb32627/lb32627-1/processing/analysis/model
REMARK            -autoncs -M TLSbasic -d Refine_4                              
REMARK Files used:                                                              
REMARK   PDB              = Refine_4/pdbchk.pdb                                 
REMARK   MTZ              = /dls/labxchem/data/lb32627/lb32627-1/processing/anal
REMARK output written to subdirectory = Refine_4                                
REMARK best refinement for F,SIGF with R/Rfree 0.1926/0.2157                    
REMARK header records are copied from input PDB file (apart from REMARK 3!)     
REMARK --------------------- added by autoBUSTER -------------------------------
REMARK   2                                                            
REMARK   2 RESOLUTION.    1.16 ANGSTROMS.
REMARK   3
REMARK   3 REFINEMENT.
REMARK   3   PROGRAM     : BUSTER 2.10.4 (21-NOV-2022)
REMARK   3   AUTHORS     : BRICOGNE,BLANC,BRANDL,FLENSBURG,KELLER,
REMARK   3               : PACIOREK,ROVERSI,SHARFF,SMART,VONRHEIN,WOMACK;
REMARK   3               : MATTHEWS,TEN EYCK,TRONRUD
REMARK   3
REMARK   3  DATA USED IN REFINEMENT.
REMARK   3   RESOLUTION RANGE HIGH (ANGSTROMS) : 1.160
REMARK   3   RESOLUTION RANGE LOW  (ANGSTROMS) : 16.75
REMARK   3   DATA CUTOFF            (SIGMA(F)) : 0.000
REMARK   3   COMPLETENESS FOR RANGE        (%) : 85.1
REMARK   3   NUMBER OF REFLECTIONS             : 91616
REMARK   3
REMARK   3  FIT TO DATA USED IN REFINEMENT.
REMARK   3   CROSS-VALIDATION METHOD          : THROUGHOUT
REMARK   3   FREE R VALUE TEST SET SELECTION  : RANDOM
REMARK   3   R VALUE     (WORKING + TEST SET) : 0.1896
REMARK   3   R VALUE            (WORKING SET) : 0.1886
REMARK   3   FREE R VALUE                     : 0.2096
REMARK   3   FREE R VALUE TEST SET SIZE   (%) : 4.990
REMARK   3   FREE R VALUE TEST SET COUNT      : 4568
REMARK   3   ESTIMATED ERROR OF FREE R VALUE  : NULL
REMARK   3
REMARK   3  FIT IN THE HIGHEST RESOLUTION BIN.
REMARK   3   TOTAL NUMBER OF BINS USED           : 51
REMARK   3   BIN RESOLUTION RANGE HIGH       (A) : 1.16
REMARK   3   BIN RESOLUTION RANGE LOW        (A) : 1.20
REMARK   3   BIN COMPLETENESS (WORKING+TEST) (%) : 17.72
REMARK   3   REFLECTIONS IN BIN   (WORKING+TEST) : 1833
REMARK   3   BIN R VALUE          (WORKING+TEST) : 0.5374
REMARK   3   REFLECTIONS IN BIN    (WORKING SET) : 1715
REMARK   3   BIN R VALUE           (WORKING SET) : 0.5360
REMARK   3   BIN FREE R VALUE                    : 0.5586
REMARK   3   BIN FREE R VALUE TEST SET SIZE  (%) : 6.44
REMARK   3   BIN FREE R VALUE TEST SET COUNT     : 118
REMARK   3   ESTIMATED ERROR OF BIN FREE R VALUE : NULL
REMARK   3
REMARK   3  NUMBER OF NON-HYDROGEN ATOMS USED IN REFINEMENT.
REMARK   3   PROTEIN ATOMS            : 2519
REMARK   3   NUCLEIC ACID ATOMS       : 0
REMARK   3   HETEROGEN ATOMS          : 17
REMARK   3   SOLVENT ATOMS            : 422
REMARK   3
REMARK   3  B VALUES.
REMARK   3   FROM WILSON PLOT           (A**2) : 14.39
REMARK   3   MEAN B VALUE      (OVERALL, A**2) : 22.18
REMARK   3   OVERALL ANISOTROPIC B VALUE.
REMARK   3    B11 (A**2) : 3.11230
REMARK   3    B22 (A**2) : 3.11230
REMARK   3    B33 (A**2) : -6.22450
REMARK   3    B12 (A**2) : 0.00000
REMARK   3    B13 (A**2) : 0.00000
REMARK   3    B23 (A**2) : 0.00000
REMARK   3
REMARK   3  ESTIMATED COORDINATE ERROR.
REMARK   3   ESD FROM LUZZATI PLOT                    (A) : 0.20
REMARK   3   DPI (BLOW EQ-10) BASED ON R VALUE        (A) : 0.048
REMARK   3   DPI (BLOW EQ-9) BASED ON FREE R VALUE    (A) : 0.049
REMARK   3   DPI (CRUICKSHANK) BASED ON R VALUE       (A) : 0.045
REMARK   3   DPI (CRUICKSHANK) BASED ON FREE R VALUE  (A) : 0.047
REMARK   3
REMARK   3   REFERENCES: BLOW, D. (2002) ACTA CRYST D58, 792-797
REMARK   3               CRUICKSHANK, D.W.J. (1999) ACTA CRYST D55, 583-601
REMARK   3
REMARK   3  CORRELATION COEFFICIENTS.
REMARK   3   CORRELATION COEFFICIENT FO-FC      : 0.960
REMARK   3   CORRELATION COEFFICIENT FO-FC FREE : 0.960
REMARK   3
REMARK   3  X-RAY WEIGHT : 6.01
REMARK   3
REMARK   3  GEOMETRY FUNCTION.                                                  
REMARK   3   RESTRAINT LIBRARIES.                                               
REMARK   3    NUMBER OF LIBRARIES USED :   8                                    
REMARK   3    LIBRARY  1 : protgeo_eh99.dat (V1.6.4.20) 20220523  STANDARD      
REMARK   3                 AMINO ACID DICTIONARY. BONDS AND ANGLES FROM         
REMARK   3                 ENGH AND HUBER EH99. OTHER VALUES BASED ON           
REMARK   3                 PREVIOUS TNT OR TAKEN FROM CCP4. INCLUDES            
REMARK   3                 HYDROGEN ATOMS.                                      
REMARK   3    LIBRARY  2 : exoticaa.dat (V1.3.4.16) 20220523  COLLECTION        
REMARK   3                 OF NON-STANDARD AMINO ACIDS, MAINLY EH91             
REMARK   3                 WITHOUT IDEAL DISTANCE INFO                          
REMARK   3    LIBRARY  3 : nuclgeo.dat (V1.13.4.9) 20221011                     
REMARK   3    LIBRARY  4 : bcorrel.dat (V1.15.10.2) 20190616                    
REMARK   3    LIBRARY  5 : contact.dat (V1.15.12.10) 20191121                   
REMARK   3    LIBRARY  6 : idealdist_contact.dat (V1.3.4.13) 20220125           
REMARK   3                 IDEAL-DISTANCE CONTACT TERM DATA AS USED IN          
REMARK   3                 PROLSQ. VALUES USED HERE ARE BASED ON DATA           
REMARK   3                 HARVESTING OF PDB AS OF 20190109.                    
REMARK   3    LIBRARY  7 : restraints for LIG (unknown) from cif                
REMARK   3                 dictionary ASAP-0008324-001.cif; generated by        
REMARK   3                 GRADE 1.2.21 (Feb 03 2022) from SMILES               
REMARK   3                 CC(C)[C@@H](Nc1ncnc2[nH]ccc12)C(=O)O using           
REMARK   3                 MOGUL 1.8.5(274361), CSD as541be, with quantum       
REMARK   3                 mechanics RM1                                        
REMARK   3    LIBRARY  8 : assume.dat (V1.9.4.3) 20221011                       
REMARK   3                                                                      
REMARK   3   NUMBER OF GEOMETRIC FUNCTION TERMS DEFINED : 15                    
REMARK   3   TERM                          COUNT    WEIGHT   FUNCTION.          
REMARK   3    BOND LENGTHS              :   2687 ;   2.00 ;  HARMONIC           
REMARK   3    BOND ANGLES               :   3672 ;   2.00 ;  HARMONIC           
REMARK   3    TORSION ANGLES            :    923 ;   2.00 ;  SINUSOIDAL         
REMARK   3    TRIGONAL CARBON PLANES    :   NULL ;   NULL ;  NULL               
REMARK   3    GENERAL PLANES            :    482 ;   5.00 ;  HARMONIC           
REMARK   3    ISOTROPIC THERMAL FACTORS :   2687 ;  10.00 ;  HARMONIC           
REMARK   3    BAD NON-BONDED CONTACTS   :   NULL ;   NULL ;  NULL               
REMARK   3    IMPROPER TORSIONS         :   NULL ;   NULL ;  NULL               
REMARK   3    PSEUDOROTATION ANGLES     :   NULL ;   NULL ;  NULL               
REMARK   3    CHIRAL IMPROPER TORSION   :    347 ;   5.00 ;  SEMIHARMONIC       
REMARK   3    SUM OF OCCUPANCIES        :   NULL ;   NULL ;  NULL               
REMARK   3    UTILITY DISTANCES         :   NULL ;   NULL ;  NULL               
REMARK   3    UTILITY ANGLES            :   NULL ;   NULL ;  NULL               
REMARK   3    UTILITY TORSION           :   NULL ;   NULL ;  NULL               
REMARK   3    IDEAL-DIST CONTACT TERM   :   2768 ;   4.00 ;  SEMIHARMONIC       
REMARK   3                                                                      
REMARK   3   RMS DEVIATIONS FROM IDEAL VALUES.                                  
REMARK   3   BOND LENGTHS                       (A) : 0.014                     
REMARK   3   BOND ANGLES                  (DEGREES) : 1.20                      
REMARK   3   PEPTIDE OMEGA TORSION ANGLES (DEGREES) : 4.88                      
REMARK   3   OTHER TORSION ANGLES         (DEGREES) : 14.65                     
REMARK   3                                                                      
REMARK   3   SIMILARITY.                                                        
REMARK   3    NCS.                                                              
REMARK   3     NCS METHOD: RESTRAINT LSSR (-AUTONCS)                            
REMARK   3    TARGET RESTRAINTS.                                                
REMARK   3     TARGET REPRESENTATION : NONE                                     
REMARK   3     TARGET STRUCTURE : NULL                                          
REMARK   3                                                                      
REMARK   3  TLS DETAILS.                                                        
REMARK   3   NUMBER OF TLS GROUPS  :            2                               
REMARK   3                                                                      
REMARK   3   TLS GROUP :            1                                           
REMARK   3    SET : { A|* }                                                     
REMARK   3    ORIGIN FOR THE GROUP (A):    4.3297   21.4165   -0.3966           
REMARK   3    T TENSOR                                                          
REMARK   3     T11:   -0.0019 T22:   -0.0197                                    
REMARK   3     T33:    0.0039 T12:   -0.0007                                    
REMARK   3     T13:   -0.0358 T23:    0.0070                                    
REMARK   3    L TENSOR                                                          
REMARK   3     L11:    0.7836 L22:    0.9239                                    
REMARK   3     L33:    0.0960 L12:   -0.2707                                    
REMARK   3     L13:    0.1124 L23:    0.0093                                    
REMARK   3    S TENSOR                                                          
REMARK   3     S11:    0.0286 S12:    0.0014 S13:   -0.0603                     
REMARK   3     S21:    0.0655 S22:    0.0018 S23:   -0.0866                     
REMARK   3     S31:    0.0064 S32:   -0.0304 S33:   -0.0303                     
REMARK   3                                                                      
REMARK   3   TLS GROUP :            2                                           
REMARK   3    SET : { B|* }                                                     
REMARK   3    ORIGIN FOR THE GROUP (A):   22.4653   43.3538   -8.0542           
REMARK   3    T TENSOR                                                          
REMARK   3     T11:   -0.0259 T22:   -0.0137                                    
REMARK   3     T33:    0.0024 T12:    0.0092                                    
REMARK   3     T13:   -0.0101 T23:   -0.0045                                    
REMARK   3    L TENSOR                                                          
REMARK   3     L11:    1.1468 L22:    1.1109                                    
REMARK   3     L33:    0.1775 L12:   -0.2068                                    
REMARK   3     L13:   -0.2684 L23:    0.0809                                    
REMARK   3    S TENSOR                                                          
REMARK   3     S11:    0.0759 S12:    0.0120 S13:   -0.0885                     
REMARK   3     S21:   -0.0112 S22:   -0.0730 S23:   -0.1052                     
REMARK   3     S31:   -0.0522 S32:   -0.0153 S33:   -0.0029                     
REMARK   3                                                                      
REMARK   3  REFINEMENT NOTES.                                                   
REMARK   3   NUMBER OF REFINEMENT NOTES :   1                                   
REMARK   3   NOTE   1 : IDEAL-DIST CONTACT TERM CONTACT SETUP. ALL ATOMS        
REMARK   3               HAVE CCP4 ATOM TYPE FROM LIBRARY                       
REMARK   3
REMARK   3  OTHER REFINEMENT REMARKS: NULL
REMARK   3
REMARK 290                                                            
REMARK 290 CRYSTALLOGRAPHIC SYMMETRY                                  
REMARK 290 SYMMETRY OPERATORS FOR SPACE GROUP: P 43                   
REMARK 290                                                            
REMARK 290      SYMOP   SYMMETRY                                      
REMARK 290     NNNMMM   OPERATOR                                      
REMARK 290       1555   X,Y,Z                                         
REMARK 290       2555   -X,-Y,1/2+Z                                   
REMARK 290       3555   -Y,X,3/4+Z                                    
REMARK 290       4555   Y,-X,1/4+Z                                    
REMARK 290                                                            
REMARK 290     WHERE NNN -> OPERATOR NUMBER                           
REMARK 290           MMM -> TRANSLATION VECTOR                        
REMARK 290                                                            
REMARK 290 CRYSTALLOGRAPHIC SYMMETRY TRANSFORMATIONS                  
REMARK 290 THE FOLLOWING TRANSFORMATIONS OPERATE ON THE ATOM/HETATM   
REMARK 290 RECORDS IN THIS ENTRY TO PRODUCE CRYSTALLOGRAPHICALLY      
REMARK 290 RELATED MOLECULES.                                         
REMARK 290   SMTRY1   1  1.000000  0.000000  0.000000        0.00000
REMARK 290   SMTRY2   1  0.000000  1.000000  0.000000        0.00000
REMARK 290   SMTRY3   1  0.000000  0.000000  1.000000        0.00000
REMARK 290   SMTRY1   2 -1.000000  0.000000  0.000000        0.00000
REMARK 290   SMTRY2   2  0.000000 -1.000000  0.000000        0.00000
REMARK 290   SMTRY3   2  0.000000  0.000000  1.000000       19.77200
REMARK 290   SMTRY1   3  0.000000 -1.000000  0.000000        0.00000
REMARK 290   SMTRY2   3  1.000000  0.000000  0.000000        0.00000
REMARK 290   SMTRY3   3  0.000000  0.000000  1.000000       29.65800
REMARK 290   SMTRY1   4  0.000000  1.000000  0.000000        0.00000
REMARK 290   SMTRY2   4 -1.000000  0.000000  0.000000        0.00000
REMARK 290   SMTRY3   4  0.000000  0.000000  1.000000        9.88600
REMARK 290                                                            
REMARK 290 REMARK: NULL                                               
REMARK 300
REMARK 300 BIOMOLECULE: 1, 2
REMARK 300 SEE REMARK 350 FOR THE AUTHOR PROVIDED AND/OR PROGRAM
REMARK 300 GENERATED ASSEMBLY INFORMATION FOR THE STRUCTURE IN
REMARK 300 THIS ENTRY. THE REMARK MAY ALSO  PROVIDE INFORMATION ON
REMARK 300 BURIED SURFACE AREA.
REMARK 350
REMARK 350 COORDINATES FOR A COMPLETE MULTIMER REPRESENTING THE KNOWN
REMARK 350 BIOLOGICALLY SIGNIFICANT OLIGOMERIZATION STATE OF THE
REMARK 350 MOLECULE CAN BE GENERATED BY APPLYING BIOMT TRANSFORMATIONS
REMARK 350 GIVEN BELOW. BOTH NON-CRYSTALLOGRAPHIC AND
REMARK 350 CRYSTALLOGRAPHIC OPERATIONS ARE GIVEN.
REMARK 350
REMARK 350 BIOMOLECULE: 1
REMARK 350 SOFTWARE DETERMINED QUATERNARY STRUCTURE: MONOMERIC
REMARK 350 SOFTWARE USED: PISA
REMARK 350 SURFACE AREA OF THE MONOMER: 7690 ANGSTROM**2
REMARK 350 FREE ENERGY OF FOLDING: -153.4 KCAL/MOL
REMARK 350 APPLY THE FOLLOWING TO CHAINS: A,W
REMARK 350   BIOMT1   1  1.000000  0.000000  0.000000        0.00000
REMARK 350   BIOMT2   1  0.000000  1.000000  0.000000        0.00000
REMARK 350   BIOMT3   1  0.000000  0.000000  1.000000        0.00000
REMARK 350
REMARK 350 BIOMOLECULE: 2
REMARK 350 SOFTWARE DETERMINED QUATERNARY STRUCTURE: MONOMERIC
REMARK 350 SOFTWARE USED: PISA
REMARK 350 SURFACE AREA OF THE MONOMER: 8144 ANGSTROM**2
REMARK 350 FREE ENERGY OF FOLDING: -157.1 KCAL/MOL
REMARK 350 APPLY THE FOLLOWING TO CHAINS: B,W
REMARK 350   BIOMT1   1  1.000000  0.000000  0.000000        0.00000
REMARK 350   BIOMT2   1  0.000000  1.000000  0.000000        0.00000
REMARK 350   BIOMT3   1  0.000000  0.000000  1.000000        0.00000
CRYST1   89.126   89.126   39.544  90.00  90.00  90.00 P 43                     


$$$$
SARS2_Mac1A-A1188
  PyMOL3.0          3D                             0

 18 20  0  0  0  0  0  0  0  0999 V2000
   -0.2860   11.8890   -5.4710 N   0  0  0  0  0  0  0  0  0  0  0  0
    0.5560   12.2050   -3.2070 C   0  0  0  0  0  0  0  0  0  0  0  0
    0.0780   11.1290   -2.9110 O   0  0  0  0  0  0  0  0  0  0  0  0
    0.4430   12.8000   -4.6040 C   0  0  0  0  0  0  0  0  0  0  0  0
    1.1980   12.0130   -7.2440 N   0  0  0  0  0  0  0  0  0  0  0  0
    1.1860   12.9720   -2.3620 O   0  0  0  0  0  0  0  0  0  0  0  0
   -0.2580   14.1640   -4.5850 C   0  0  0  0  0  0  0  0  0  0  0  0
    1.0810   10.4960   -9.1100 N   0  0  0  0  0  0  0  0  0  0  0  0
   -1.7280   14.1150   -4.1700 C   0  0  0  0  0  0  0  0  0  0  0  0
   -0.5400    8.7210   -8.8550 N   0  0  0  0  0  0  0  0  0  0  0  0
   -2.3180   15.2640   -3.4050 C   0  0  0  0  0  0  0  0  0  0  0  0
   -2.0850   13.9530   -2.7290 C   0  0  0  0  0  0  0  0  0  0  0  0
    0.1920   11.3680   -6.6160 C   0  0  0  0  0  0  0  0  0  0  0  0
    1.5730   11.5400   -8.4350 C   0  0  0  0  0  0  0  0  0  0  0  0
    0.1030    9.8540   -8.4460 C   0  0  0  0  0  0  0  0  0  0  0  0
   -1.4330    8.3590   -7.8720 C   0  0  0  0  0  0  0  0  0  0  0  0
   -1.3760    9.2370   -6.8400 C   0  0  0  0  0  0  0  0  0  0  0  0
   -0.4010   10.2150   -7.1910 C   0  0  0  0  0  0  0  0  0  0  0  0
  1 13  1  0  0  0  0
  2  4  1  0  0  0  0
  2  6  4  0  0  0  0
  2  3  4  0  0  0  0
  1  4  1  0  0  0  0
  4  7  1  0  0  0  0
  7  9  1  0  0  0  0
  8 14  4  0  0  0  0
  9 11  1  0  0  0  0
  9 12  1  0  0  0  0
 10 15  4  0  0  0  0
 11 12  1  0  0  0  0
  5 13  4  0  0  0  0
 13 18  4  0  0  0  0
  5 14  4  0  0  0  0
  8 15  4  0  0  0  0
 10 16  4  0  0  0  0
 16 17  4  0  0  0  0
 15 18  4  0  0  0  0
 17 18  4  0  0  0  0
M  END
>  <pdb_header>
HEADER    ----                                    18-MAY-20                     
TITLE     ---                                                                   
EXPDTA    X-RAY DIFFRACTION                                                     
REMARK --------------------- added by autoBUSTER ---------------------------------START
REMARK run at   = Wed Apr 19 14:01:00 BST 2023
REMARK     in   = /dls/labxchem/data/lb32627/lb32627-1/processing/analysis/model_building/SARS2_Mac1A-A1188
REMARK     user = dcn76311
REMARK     cmd  = \
REMARK            /dls_sw/apps/GPhL/BUSTER/20230217/autoBUSTER/bin/linux64/refine \
REMARK            -p \
REMARK            /dls/labxchem/data/lb32627/lb32627-1/processing/analysis/model_building/SARS2_Mac1A-A1188/cootOut/Refi
REMARK            -m \
REMARK            /dls/labxchem/data/lb32627/lb32627-1/processing/analysis/model_building/SARS2_Mac1A-A1188/SARS2_Mac1A-
REMARK            -l \
REMARK            /dls/labxchem/data/lb32627/lb32627-1/processing/analysis/model_building/SARS2_Mac1A-A1188/ASAP-0008338
REMARK            -autoncs -M TLSbasic -d Refine_15
REMARK Files used:
REMARK   PDB              = Refine_15/pdbchk.pdb
REMARK   MTZ              = /dls/labxchem/data/lb32627/lb32627-1/processing/analysis/model_building/SARS2_Mac1A-A1188/SA
REMARK output written to subdirectory = Refine_15
REMARK best refinement for F,SIGF with R/Rfree 0.1959/0.2330
REMARK header records are copied from input PDB file (apart from REMARK 3!)
REMARK --------------------- added by autoBUSTER -----------------------------------END
REMARK --------------------- added by autoBUSTER -------------------------------
REMARK run at   = Tue Apr 11 13:45:56 BST 2023                                  
REMARK     in   = /dls/labxchem/data/lb32627/lb32627-1/processing/analysis/model
REMARK     user = dcn76311                                                      
REMARK     cmd  = \                                                             
REMARK            /dls_sw/apps/GPhL/BUSTER/20230217/autoBUSTER/bin/linux64/refin
REMARK            -p \                                                          
REMARK            /dls/labxchem/data/lb32627/lb32627-1/processing/analysis/model
REMARK            -m \                                                          
REMARK            /dls/labxchem/data/lb32627/lb32627-1/processing/analysis/model
REMARK            -l \                                                          
REMARK            /dls/labxchem/data/lb32627/lb32627-1/processing/analysis/model
REMARK            -autoncs -M TLSbasic -d Refine_14                             
REMARK Files used:                                                              
REMARK   PDB              = Refine_14/pdbchk.pdb                                
REMARK   MTZ              = /dls/labxchem/data/lb32627/lb32627-1/processing/anal
REMARK output written to subdirectory = Refine_14                               
REMARK best refinement for F,SIGF with R/Rfree 0.1960/0.2327                    
REMARK header records are copied from input PDB file (apart from REMARK 3!)     
REMARK --------------------- added by autoBUSTER -------------------------------
REMARK --------------------- added by autoBUSTER -------------------------------
REMARK run at   = Tue Apr 11 11:28:34 BST 2023                                  
REMARK     in   = /dls/labxchem/data/lb32627/lb32627-1/processing/analysis/model
REMARK     user = dcn76311                                                      
REMARK     cmd  = \                                                             
REMARK            /dls_sw/apps/GPhL/BUSTER/20230217/autoBUSTER/bin/linux64/refin
REMARK            -p \                                                          
REMARK            /dls/labxchem/data/lb32627/lb32627-1/processing/analysis/model
REMARK            -m \                                                          
REMARK            /dls/labxchem/data/lb32627/lb32627-1/processing/analysis/model
REMARK            -l \                                                          
REMARK            /dls/labxchem/data/lb32627/lb32627-1/processing/analysis/model
REMARK            -autoncs -M TLSbasic -d Refine_13                             
REMARK Files used:                                                              
REMARK   PDB              = Refine_13/pdbchk.pdb                                
REMARK   MTZ              = /dls/labxchem/data/lb32627/lb32627-1/processing/anal
REMARK output written to subdirectory = Refine_13                               
REMARK best refinement for F,SIGF with R/Rfree 0.1966/0.2330                    
REMARK header records are copied from input PDB file (apart from REMARK 3!)     
REMARK --------------------- added by autoBUSTER -------------------------------
REMARK --------------------- added by autoBUSTER -------------------------------
REMARK run at   = Tue Apr 11 11:16:14 BST 2023                                  
REMARK     in   = /dls/labxchem/data/lb32627/lb32627-1/processing/analysis/model
REMARK     user = dcn76311                                                      
REMARK     cmd  = \                                                             
REMARK            /dls_sw/apps/GPhL/BUSTER/20230217/autoBUSTER/bin/linux64/refin
REMARK            -p \                                                          
REMARK            /dls/labxchem/data/lb32627/lb32627-1/processing/analysis/model
REMARK            -m \                                                          
REMARK            /dls/labxchem/data/lb32627/lb32627-1/processing/analysis/model
REMARK            -l \                                                          
REMARK            /dls/labxchem/data/lb32627/lb32627-1/processing/analysis/model
REMARK            -autoncs -M TLSbasic -d Refine_12                             
REMARK Files used:                                                              
REMARK   PDB              = Refine_12/pdbchk.pdb                                
REMARK   MTZ              = /dls/labxchem/data/lb32627/lb32627-1/processing/anal
REMARK output written to subdirectory = Refine_12                               
REMARK best refinement for F,SIGF with R/Rfree 0.1964/0.2326                    
REMARK header records are copied from input PDB file (apart from REMARK 3!)     
REMARK --------------------- added by autoBUSTER -------------------------------
REMARK --------------------- added by autoBUSTER -------------------------------
REMARK run at   = Tue Apr 11 10:50:58 BST 2023                                  
REMARK     in   = /dls/labxchem/data/lb32627/lb32627-1/processing/analysis/model
REMARK     user = dcn76311                                                      
REMARK     cmd  = \                                                             
REMARK            /dls_sw/apps/GPhL/BUSTER/20230217/autoBUSTER/bin/linux64/refin
REMARK            -p \                                                          
REMARK            /dls/labxchem/data/lb32627/lb32627-1/processing/analysis/model
REMARK            -m \                                                          
REMARK            /dls/labxchem/data/lb32627/lb32627-1/processing/analysis/model
REMARK            -l \                                                          
REMARK            /dls/labxchem/data/lb32627/lb32627-1/processing/analysis/model
REMARK            -autoncs -M TLSbasic -d Refine_11                             
REMARK Files used:                                                              
REMARK   PDB              = Refine_11/pdbchk.pdb                                
REMARK   MTZ              = /dls/labxchem/data/lb32627/lb32627-1/processing/anal
REMARK output written to subdirectory = Refine_11                               
REMARK best refinement for F,SIGF with R/Rfree 0.1964/0.2324                    
REMARK header records are copied from input PDB file (apart from REMARK 3!)     
REMARK --------------------- added by autoBUSTER -------------------------------
REMARK --------------------- added by autoBUSTER -------------------------------
REMARK run at   = Tue Apr 11 10:11:52 BST 2023                                  
REMARK     in   = /dls/labxchem/data/lb32627/lb32627-1/processing/analysis/model
REMARK     user = dcn76311                                                      
REMARK     cmd  = \                                                             
REMARK            /dls_sw/apps/GPhL/BUSTER/20230217/autoBUSTER/bin/linux64/refin
REMARK            -p \                                                          
REMARK            /dls/labxchem/data/lb32627/lb32627-1/processing/analysis/model
REMARK            -m \                                                          
REMARK            /dls/labxchem/data/lb32627/lb32627-1/processing/analysis/model
REMARK            -l \                                                          
REMARK            /dls/labxchem/data/lb32627/lb32627-1/processing/analysis/model
REMARK            -autoncs -M TLSbasic -B user -Gelly gelly.dat -d Refine_10    
REMARK Files used:                                                              
REMARK   PDB              = Refine_10/pdbchk.pdb                                
REMARK   MTZ              = /dls/labxchem/data/lb32627/lb32627-1/processing/anal
REMARK   Gelly commands       = /dls/labxchem/data/lb32627/lb32627-1/processing/
REMARK output written to subdirectory = Refine_10                               
REMARK best refinement for F,SIGF with R/Rfree 0.1963/0.2327                    
REMARK header records are copied from input PDB file (apart from REMARK 3!)     
REMARK --------------------- added by autoBUSTER -------------------------------
REMARK --------------------- added by autoBUSTER -------------------------------
REMARK run at   = Wed Apr  5 11:34:03 BST 2023                                  
REMARK     in   = /dls/labxchem/data/lb32627/lb32627-1/processing/analysis/model
REMARK     user = dcn76311                                                      
REMARK     cmd  = \                                                             
REMARK            /dls_sw/apps/GPhL/BUSTER/20230217/autoBUSTER/bin/linux64/refin
REMARK            -p \                                                          
REMARK            /dls/labxchem/data/lb32627/lb32627-1/processing/analysis/model
REMARK            -m \                                                          
REMARK            /dls/labxchem/data/lb32627/lb32627-1/processing/analysis/model
REMARK            -l \                                                          
REMARK            /dls/labxchem/data/lb32627/lb32627-1/processing/analysis/model
REMARK            -autoncs -M TLSbasic -d Refine_9                              
REMARK Files used:                                                              
REMARK   PDB              = Refine_9/pdbchk.pdb                                 
REMARK   MTZ              = /dls/labxchem/data/lb32627/lb32627-1/processing/anal
REMARK output written to subdirectory = Refine_9                                
REMARK best refinement for F,SIGF with R/Rfree 0.1962/0.2327                    
REMARK header records are copied from input PDB file (apart from REMARK 3!)     
REMARK --------------------- added by autoBUSTER -------------------------------
REMARK --------------------- added by autoBUSTER -------------------------------
REMARK run at   = Wed Apr  5 10:54:20 BST 2023                                  
REMARK     in   = /dls/labxchem/data/lb32627/lb32627-1/processing/analysis/model
REMARK     user = dcn76311                                                      
REMARK     cmd  = \                                                             
REMARK            /dls_sw/apps/GPhL/BUSTER/20230217/autoBUSTER/bin/linux64/refin
REMARK            -p \                                                          
REMARK            /dls/labxchem/data/lb32627/lb32627-1/processing/analysis/model
REMARK            -m \                                                          
REMARK            /dls/labxchem/data/lb32627/lb32627-1/processing/analysis/model
REMARK            -l \                                                          
REMARK            /dls/labxchem/data/lb32627/lb32627-1/processing/analysis/model
REMARK            -autoncs -M TLSbasic -d Refine_8                              
REMARK Files used:                                                              
REMARK   PDB              = Refine_8/pdbchk.pdb                                 
REMARK   MTZ              = /dls/labxchem/data/lb32627/lb32627-1/processing/anal
REMARK output written to subdirectory = Refine_8                                
REMARK best refinement for F,SIGF with R/Rfree 0.1971/0.2339                    
REMARK header records are copied from input PDB file (apart from REMARK 3!)     
REMARK --------------------- added by autoBUSTER -------------------------------
REMARK --------------------- added by autoBUSTER -------------------------------
REMARK run at   = Wed Apr  5 10:02:28 BST 2023                                  
REMARK     in   = /dls/labxchem/data/lb32627/lb32627-1/processing/analysis/model
REMARK     user = dcn76311                                                      
REMARK     cmd  = \                                                             
REMARK            /dls_sw/apps/GPhL/BUSTER/20230217/autoBUSTER/bin/linux64/refin
REMARK            -p \                                                          
REMARK            /dls/labxchem/data/lb32627/lb32627-1/processing/analysis/model
REMARK            -m \                                                          
REMARK            /dls/labxchem/data/lb32627/lb32627-1/processing/analysis/model
REMARK            -l \                                                          
REMARK            /dls/labxchem/data/lb32627/lb32627-1/processing/analysis/model
REMARK            -autoncs -M TLSbasic -d Refine_7                              
REMARK Files used:                                                              
REMARK   PDB              = Refine_7/pdbchk.pdb                                 
REMARK   MTZ              = /dls/labxchem/data/lb32627/lb32627-1/processing/anal
REMARK output written to subdirectory = Refine_7                                
REMARK best refinement for F,SIGF with R/Rfree 0.1977/0.2331                    
REMARK header records are copied from input PDB file (apart from REMARK 3!)     
REMARK --------------------- added by autoBUSTER -------------------------------
REMARK --------------------- added by autoBUSTER -------------------------------
REMARK run at   = Thu Mar 16 13:38:58 GMT 2023                                  
REMARK     in   = /dls/labxchem/data/lb32627/lb32627-1/processing/analysis/model
REMARK     user = dcn76311                                                      
REMARK     cmd  = \                                                             
REMARK            /dls_sw/apps/GPhL/BUSTER/20221121/autoBUSTER/bin/linux64/refin
REMARK            -p \                                                          
REMARK            /dls/labxchem/data/lb32627/lb32627-1/processing/analysis/model
REMARK            -m \                                                          
REMARK            /dls/labxchem/data/lb32627/lb32627-1/processing/analysis/model
REMARK            -l \                                                          
REMARK            /dls/labxchem/data/lb32627/lb32627-1/processing/analysis/model
REMARK            -autoncs -M TLSbasic -d Refine_6                              
REMARK Files used:                                                              
REMARK   PDB              = Refine_6/pdbchk.pdb                                 
REMARK   MTZ              = /dls/labxchem/data/lb32627/lb32627-1/processing/anal
REMARK output written to subdirectory = Refine_6                                
REMARK best refinement for F,SIGF with R/Rfree 0.1983/0.2327                    
REMARK header records are copied from input PDB file (apart from REMARK 3!)     
REMARK --------------------- added by autoBUSTER -------------------------------
REMARK --------------------- added by autoBUSTER -------------------------------
REMARK run at   = Mon Mar 13 08:48:46 GMT 2023                                  
REMARK     in   = /dls/labxchem/data/lb32627/lb32627-1/processing/analysis/model
REMARK     user = dcn76311                                                      
REMARK     cmd  = \                                                             
REMARK            /dls_sw/apps/GPhL/BUSTER/20221121/autoBUSTER/bin/linux64/refin
REMARK            -p \                                                          
REMARK            /dls/labxchem/data/lb32627/lb32627-1/processing/analysis/model
REMARK            -m \                                                          
REMARK            /dls/labxchem/data/lb32627/lb32627-1/processing/analysis/model
REMARK            -l \                                                          
REMARK            /dls/labxchem/data/lb32627/lb32627-1/processing/analysis/model
REMARK            -autoncs -M TLSbasic -d Refine_5                              
REMARK Files used:                                                              
REMARK   PDB              = Refine_5/pdbchk.pdb                                 
REMARK   MTZ              = /dls/labxchem/data/lb32627/lb32627-1/processing/anal
REMARK output written to subdirectory = Refine_5                                
REMARK best refinement for F,SIGF with R/Rfree 0.1993/0.2323                    
REMARK header records are copied from input PDB file (apart from REMARK 3!)     
REMARK --------------------- added by autoBUSTER -------------------------------
REMARK --------------------- added by autoBUSTER -------------------------------
REMARK run at   = Wed Mar  8 13:59:03 GMT 2023                                  
REMARK     in   = /dls/labxchem/data/lb32627/lb32627-1/processing/analysis/model
REMARK     user = dcn76311                                                      
REMARK     cmd  = \                                                             
REMARK            /dls_sw/apps/GPhL/BUSTER/20221121/autoBUSTER/bin/linux64/refin
REMARK            -p \                                                          
REMARK            /dls/labxchem/data/lb32627/lb32627-1/processing/analysis/model
REMARK            -m \                                                          
REMARK            /dls/labxchem/data/lb32627/lb32627-1/processing/analysis/model
REMARK            -l \                                                          
REMARK            /dls/labxchem/data/lb32627/lb32627-1/processing/analysis/model
REMARK            -autoncs -M TLSbasic -d Refine_4                              
REMARK Files used:                                                              
REMARK   PDB              = Refine_4/pdbchk.pdb                                 
REMARK   MTZ              = /dls/labxchem/data/lb32627/lb32627-1/processing/anal
REMARK output written to subdirectory = Refine_4                                
REMARK best refinement for F,SIGF with R/Rfree 0.1996/0.2329                    
REMARK header records are copied from input PDB file (apart from REMARK 3!)     
REMARK --------------------- added by autoBUSTER -------------------------------
REMARK --------------------- added by autoBUSTER -------------------------------
REMARK run at   = Wed Mar  8 11:27:44 GMT 2023                                  
REMARK     in   = /dls/labxchem/data/lb32627/lb32627-1/processing/analysis/model
REMARK     user = dcn76311                                                      
REMARK     cmd  = \                                                             
REMARK            /dls_sw/apps/GPhL/BUSTER/20221121/autoBUSTER/bin/linux64/refin
REMARK            -p \                                                          
REMARK            /dls/labxchem/data/lb32627/lb32627-1/processing/analysis/model
REMARK            -m \                                                          
REMARK            /dls/labxchem/data/lb32627/lb32627-1/processing/analysis/model
REMARK            -l \                                                          
REMARK            /dls/labxchem/data/lb32627/lb32627-1/processing/analysis/model
REMARK            -autoncs -M TLSbasic -d Refine_3                              
REMARK Files used:                                                              
REMARK   PDB              = Refine_3/pdbchk.pdb                                 
REMARK   MTZ              = /dls/labxchem/data/lb32627/lb32627-1/processing/anal
REMARK output written to subdirectory = Refine_3                                
REMARK best refinement for F,SIGF with R/Rfree 0.2015/0.2378                    
REMARK header records are copied from input PDB file (apart from REMARK 3!)     
REMARK --------------------- added by autoBUSTER -------------------------------
REMARK --------------------- added by autoBUSTER -------------------------------
REMARK run at   = Tue Mar  7 15:14:01 GMT 2023                                  
REMARK     in   = /dls/labxchem/data/lb32627/lb32627-1/processing/analysis/model
REMARK     user = dcn76311                                                      
REMARK     cmd  = \                                                             
REMARK            /dls_sw/apps/GPhL/BUSTER/20221121/autoBUSTER/bin/linux64/refin
REMARK            -p \                                                          
REMARK            /dls/labxchem/data/lb32627/lb32627-1/processing/analysis/model
REMARK            -m \                                                          
REMARK            /dls/labxchem/data/lb32627/lb32627-1/processing/analysis/model
REMARK            -l \                                                          
REMARK            /dls/labxchem/data/lb32627/lb32627-1/processing/analysis/model
REMARK            -autoncs -M TLSbasic -d Refine_2                              
REMARK Files used:                                                              
REMARK   PDB              = Refine_2/pdbchk.pdb                                 
REMARK   MTZ              = /dls/labxchem/data/lb32627/lb32627-1/processing/anal
REMARK output written to subdirectory = Refine_2                                
REMARK best refinement for F,SIGF with R/Rfree 0.2004/0.2425                    
REMARK header records are copied from input PDB file (apart from REMARK 3!)     
REMARK --------------------- added by autoBUSTER -------------------------------
REMARK --------------------- added by autoBUSTER -------------------------------
REMARK run at   = Fri Mar  3 15:13:05 GMT 2023                                  
REMARK     in   = /dls/labxchem/data/lb32627/lb32627-1/processing/analysis/model
REMARK     user = dcn76311                                                      
REMARK     cmd  = \                                                             
REMARK            /dls_sw/apps/GPhL/BUSTER/20221121/autoBUSTER/bin/linux64/refin
REMARK            -p \                                                          
REMARK            /dls/labxchem/data/lb32627/lb32627-1/processing/analysis/model
REMARK            -m \                                                          
REMARK            /dls/labxchem/data/lb32627/lb32627-1/processing/analysis/model
REMARK            -l \                                                          
REMARK            /dls/labxchem/data/lb32627/lb32627-1/processing/analysis/model
REMARK            -autoncs -M TLSbasic -d Refine_1                              
REMARK Files used:                                                              
REMARK   PDB              = Refine_1/pdbchk.pdb                                 
REMARK   MTZ              = /dls/labxchem/data/lb32627/lb32627-1/processing/anal
REMARK output written to subdirectory = Refine_1                                
REMARK best refinement for F,SIGF with R/Rfree 0.2010/0.2426                    
REMARK header records are copied from input PDB file (apart from REMARK 3!)     
REMARK --------------------- added by autoBUSTER -------------------------------
REMARK   2                                                            
REMARK   2 RESOLUTION.    1.39 ANGSTROMS.
REMARK   3
REMARK   3 REFINEMENT.
REMARK   3   PROGRAM     : BUSTER 2.10.4 (17-FEB-2023)
REMARK   3   AUTHORS     : BRICOGNE,BLANC,BRANDL,FLENSBURG,KELLER,
REMARK   3               : PACIOREK,ROVERSI,SHARFF,SMART,VONRHEIN,WOMACK;
REMARK   3               : MATTHEWS,TEN EYCK,TRONRUD
REMARK   3
REMARK   3  DATA USED IN REFINEMENT.
REMARK   3   RESOLUTION RANGE HIGH (ANGSTROMS) : 1.391
REMARK   3   RESOLUTION RANGE LOW  (ANGSTROMS) : 19.95
REMARK   3   DATA CUTOFF            (SIGMA(F)) : 0.000
REMARK   3   COMPLETENESS FOR RANGE        (%) : 87.0
REMARK   3   NUMBER OF REFLECTIONS             : 54641
REMARK   3
REMARK   3  FIT TO DATA USED IN REFINEMENT.
REMARK   3   CROSS-VALIDATION METHOD          : THROUGHOUT
REMARK   3   FREE R VALUE TEST SET SELECTION  : RANDOM
REMARK   3   R VALUE     (WORKING + TEST SET) : 0.1977
REMARK   3   R VALUE            (WORKING SET) : 0.1959
REMARK   3   FREE R VALUE                     : 0.2330
REMARK   3   FREE R VALUE TEST SET SIZE   (%) : 4.930
REMARK   3   FREE R VALUE TEST SET COUNT      : 2694
REMARK   3   ESTIMATED ERROR OF FREE R VALUE  : NULL
REMARK   3
REMARK   3  FIT IN THE HIGHEST RESOLUTION BIN.
REMARK   3   TOTAL NUMBER OF BINS USED           : 51
REMARK   3   BIN RESOLUTION RANGE HIGH       (A) : 1.39
REMARK   3   BIN RESOLUTION RANGE LOW        (A) : 1.43
REMARK   3   BIN COMPLETENESS (WORKING+TEST) (%) : 22.04
REMARK   3   REFLECTIONS IN BIN   (WORKING+TEST) : 1093
REMARK   3   BIN R VALUE          (WORKING+TEST) : 0.3848
REMARK   3   REFLECTIONS IN BIN    (WORKING SET) : 1041
REMARK   3   BIN R VALUE           (WORKING SET) : 0.3835
REMARK   3   BIN FREE R VALUE                    : 0.4121
REMARK   3   BIN FREE R VALUE TEST SET SIZE  (%) : 4.76
REMARK   3   BIN FREE R VALUE TEST SET COUNT     : 52
REMARK   3   ESTIMATED ERROR OF BIN FREE R VALUE : NULL
REMARK   3
REMARK   3  NUMBER OF NON-HYDROGEN ATOMS USED IN REFINEMENT.
REMARK   3   PROTEIN ATOMS            : 2519
REMARK   3   NUCLEIC ACID ATOMS       : 0
REMARK   3   HETEROGEN ATOMS          : 22
REMARK   3   SOLVENT ATOMS            : 409
REMARK   3
REMARK   3  B VALUES.
REMARK   3   FROM WILSON PLOT           (A**2) : 23.47
REMARK   3   MEAN B VALUE      (OVERALL, A**2) : 27.86
REMARK   3   OVERALL ANISOTROPIC B VALUE.
REMARK   3    B11 (A**2) : 1.75150
REMARK   3    B22 (A**2) : 1.75150
REMARK   3    B33 (A**2) : -3.50290
REMARK   3    B12 (A**2) : 0.00000
REMARK   3    B13 (A**2) : 0.00000
REMARK   3    B23 (A**2) : 0.00000
REMARK   3
REMARK   3  ESTIMATED COORDINATE ERROR.
REMARK   3   ESD FROM LUZZATI PLOT                    (A) : 0.22
REMARK   3   DPI (BLOW EQ-10) BASED ON R VALUE        (A) : 0.081
REMARK   3   DPI (BLOW EQ-9) BASED ON FREE R VALUE    (A) : 0.083
REMARK   3   DPI (CRUICKSHANK) BASED ON R VALUE       (A) : 0.076
REMARK   3   DPI (CRUICKSHANK) BASED ON FREE R VALUE  (A) : 0.080
REMARK   3
REMARK   3   REFERENCES: BLOW, D. (2002) ACTA CRYST D58, 792-797
REMARK   3               CRUICKSHANK, D.W.J. (1999) ACTA CRYST D55, 583-601
REMARK   3
REMARK   3  CORRELATION COEFFICIENTS.
REMARK   3   CORRELATION COEFFICIENT FO-FC      : 0.967
REMARK   3   CORRELATION COEFFICIENT FO-FC FREE : 0.959
REMARK   3
REMARK   3  X-RAY WEIGHT : 6.01
REMARK   3
REMARK   3  GEOMETRY FUNCTION.                                                  
REMARK   3   RESTRAINT LIBRARIES.                                               
REMARK   3    NUMBER OF LIBRARIES USED :   9                                    
REMARK   3    LIBRARY  1 : protgeo_eh99.dat (V1.6.4.20) 20220523  STANDARD      
REMARK   3                 AMINO ACID DICTIONARY. BONDS AND ANGLES FROM         
REMARK   3                 ENGH AND HUBER EH99. OTHER VALUES BASED ON           
REMARK   3                 PREVIOUS TNT OR TAKEN FROM CCP4. INCLUDES            
REMARK   3                 HYDROGEN ATOMS.                                      
REMARK   3    LIBRARY  2 : exoticaa.dat (V1.3.4.16) 20220523  COLLECTION        
REMARK   3                 OF NON-STANDARD AMINO ACIDS, MAINLY EH91             
REMARK   3                 WITHOUT IDEAL DISTANCE INFO                          
REMARK   3    LIBRARY  3 : nuclgeo.dat (V1.13.4.9) 20221011                     
REMARK   3    LIBRARY  4 : bcorrel.dat (V1.15.10.2) 20190616                    
REMARK   3    LIBRARY  5 : contact.dat (V1.15.12.10) 20191121                   
REMARK   3    LIBRARY  6 : idealdist_contact.dat (V1.3.4.13) 20220125           
REMARK   3                 IDEAL-DISTANCE CONTACT TERM DATA AS USED IN          
REMARK   3                 PROLSQ. VALUES USED HERE ARE BASED ON DATA           
REMARK   3                 HARVESTING OF PDB AS OF 20190109.                    
REMARK   3    LIBRARY  7 : restraints for LIG (unknown) from cif                
REMARK   3                 dictionary ASAP-0008338-001.cif; generated by        
REMARK   3                 GRADE 1.2.21 (Feb 03 2022) from SMILES               
REMARK   3                 O=C(O)[C@H](CC1CC1)Nc1ncnc2[nH]ccc12 using           
REMARK   3                 MOGUL 1.8.5(274361), CSD as541be, with quantum       
REMARK   3                 mechanics RM1                                        
REMARK   3    LIBRARY  8 : restraints for DMS (DIMETHYL SULFOXIDE) from         
REMARK   3                 cif dictionary DMS.cif; generated by grade2          
REMARK   3                 version 1.1.0a7 from                                 
REMARK   3                 PDB_chemical_components_definition_file              
REMARK   3                 ftp://ftp.ebi.ac.uk/pub/databases/msd/pdbechem_v     
REMARK   3                 2/D/DMS/DMS.cif using RDKit 2021.03.4                
REMARK   3                 ((DatabaseID PDB-DMS))                               
REMARK   3    LIBRARY  9 : assume.dat (V1.9.4.3) 20221011                       
REMARK   3                                                                      
REMARK   3   NUMBER OF GEOMETRIC FUNCTION TERMS DEFINED : 15                    
REMARK   3   TERM                          COUNT    WEIGHT   FUNCTION.          
REMARK   3    BOND LENGTHS              :   2654 ;   2.00 ;  HARMONIC           
REMARK   3    BOND ANGLES               :   3625 ;   2.00 ;  HARMONIC           
REMARK   3    TORSION ANGLES            :    907 ;   2.00 ;  SINUSOIDAL         
REMARK   3    TRIGONAL CARBON PLANES    :   NULL ;   NULL ;  NULL               
REMARK   3    GENERAL PLANES            :    474 ;   5.00 ;  HARMONIC           
REMARK   3    ISOTROPIC THERMAL FACTORS :   2654 ;  10.00 ;  HARMONIC           
REMARK   3    BAD NON-BONDED CONTACTS   :   NULL ;   NULL ;  NULL               
REMARK   3    IMPROPER TORSIONS         :   NULL ;   NULL ;  NULL               
REMARK   3    PSEUDOROTATION ANGLES     :   NULL ;   NULL ;  NULL               
REMARK   3    CHIRAL IMPROPER TORSION   :    342 ;   5.00 ;  SEMIHARMONIC       
REMARK   3    SUM OF OCCUPANCIES        :   NULL ;   NULL ;  NULL               
REMARK   3    UTILITY DISTANCES         :   NULL ;   NULL ;  NULL               
REMARK   3    UTILITY ANGLES            :   NULL ;   NULL ;  NULL               
REMARK   3    UTILITY TORSION           :   NULL ;   NULL ;  NULL               
REMARK   3    IDEAL-DIST CONTACT TERM   :   2560 ;   4.00 ;  SEMIHARMONIC       
REMARK   3                                                                      
REMARK   3   RMS DEVIATIONS FROM IDEAL VALUES.                                  
REMARK   3   BOND LENGTHS                       (A) : 0.012                     
REMARK   3   BOND ANGLES                  (DEGREES) : 1.06                      
REMARK   3   PEPTIDE OMEGA TORSION ANGLES (DEGREES) : 4.02                      
REMARK   3   OTHER TORSION ANGLES         (DEGREES) : 15.29                     
REMARK   3                                                                      
REMARK   3   SIMILARITY.                                                        
REMARK   3    NCS.                                                              
REMARK   3     NCS METHOD: RESTRAINT LSSR (-AUTONCS)                            
REMARK   3    TARGET RESTRAINTS.                                                
REMARK   3     TARGET REPRESENTATION : NONE                                     
REMARK   3     TARGET STRUCTURE : NULL                                          
REMARK   3                                                                      
REMARK   3  TLS DETAILS.                                                        
REMARK   3   NUMBER OF TLS GROUPS  :            2                               
REMARK   3                                                                      
REMARK   3   TLS GROUP :            1                                           
REMARK   3    SET : { A|* }                                                     
REMARK   3    ORIGIN FOR THE GROUP (A):    4.0654   21.4617   -0.6219           
REMARK   3    T TENSOR                                                          
REMARK   3     T11:   -0.0190 T22:   -0.0238                                    
REMARK   3     T33:    0.0010 T12:   -0.0022                                    
REMARK   3     T13:   -0.0236 T23:    0.0059                                    
REMARK   3    L TENSOR                                                          
REMARK   3     L11:    0.5524 L22:    1.2141                                    
REMARK   3     L33:    0.0943 L12:   -0.2511                                    
REMARK   3     L13:    0.0093 L23:   -0.0702                                    
REMARK   3    S TENSOR                                                          
REMARK   3     S11:   -0.0014 S12:   -0.0210 S13:   -0.0160                     
REMARK   3     S21:    0.0182 S22:   -0.0067 S23:   -0.0586                     
REMARK   3     S31:    0.0015 S32:   -0.0127 S33:    0.0081                     
REMARK   3                                                                      
REMARK   3   TLS GROUP :            2                                           
REMARK   3    SET : { B|* }                                                     
REMARK   3    ORIGIN FOR THE GROUP (A):   22.4535   43.3036   -7.7484           
REMARK   3    T TENSOR                                                          
REMARK   3     T11:   -0.0427 T22:   -0.0270                                    
REMARK   3     T33:    0.0010 T12:    0.0064                                    
REMARK   3     T13:   -0.0085 T23:   -0.0055                                    
REMARK   3    L TENSOR                                                          
REMARK   3     L11:    1.3044 L22:    1.3726                                    
REMARK   3     L33:    0.2754 L12:   -0.4184                                    
REMARK   3     L13:   -0.3702 L23:    0.1567                                    
REMARK   3    S TENSOR                                                          
REMARK   3     S11:    0.0658 S12:   -0.0138 S13:   -0.0345                     
REMARK   3     S21:   -0.0287 S22:   -0.0607 S23:   -0.1049                     
REMARK   3     S31:   -0.0395 S32:    0.0009 S33:   -0.0051                     
REMARK   3                                                                      
REMARK   3  REFINEMENT NOTES.                                                   
REMARK   3   NUMBER OF REFINEMENT NOTES :   1                                   
REMARK   3   NOTE   1 : IDEAL-DIST CONTACT TERM CONTACT SETUP. ALL ATOMS        
REMARK   3               HAVE CCP4 ATOM TYPE FROM LIBRARY                       
REMARK   3
REMARK   3  OTHER REFINEMENT REMARKS: NULL
REMARK   3
REMARK 290                                                            
REMARK 290 CRYSTALLOGRAPHIC SYMMETRY                                  
REMARK 290 SYMMETRY OPERATORS FOR SPACE GROUP: P 43                   
REMARK 290                                                            
REMARK 290      SYMOP   SYMMETRY                                      
REMARK 290     NNNMMM   OPERATOR                                      
REMARK 290       1555   X,Y,Z                                         
REMARK 290       2555   -X,-Y,1/2+Z                                   
REMARK 290       3555   -Y,X,3/4+Z                                    
REMARK 290       4555   Y,-X,1/4+Z                                    
REMARK 290                                                            
REMARK 290     WHERE NNN -> OPERATOR NUMBER                           
REMARK 290           MMM -> TRANSLATION VECTOR                        
REMARK 290                                                            
REMARK 290 CRYSTALLOGRAPHIC SYMMETRY TRANSFORMATIONS                  
REMARK 290 THE FOLLOWING TRANSFORMATIONS OPERATE ON THE ATOM/HETATM   
REMARK 290 RECORDS IN THIS ENTRY TO PRODUCE CRYSTALLOGRAPHICALLY      
REMARK 290 RELATED MOLECULES.                                         
REMARK 290   SMTRY1   1  1.000000  0.000000  0.000000        0.00000
REMARK 290   SMTRY2   1  0.000000  1.000000  0.000000        0.00000
REMARK 290   SMTRY3   1  0.000000  0.000000  1.000000        0.00000
REMARK 290   SMTRY1   2 -1.000000  0.000000  0.000000        0.00000
REMARK 290   SMTRY2   2  0.000000 -1.000000  0.000000        0.00000
REMARK 290   SMTRY3   2  0.000000  0.000000  1.000000       19.78350
REMARK 290   SMTRY1   3  0.000000 -1.000000  0.000000        0.00000
REMARK 290   SMTRY2   3  1.000000  0.000000  0.000000        0.00000
REMARK 290   SMTRY3   3  0.000000  0.000000  1.000000       29.67525
REMARK 290   SMTRY1   4  0.000000  1.000000  0.000000        0.00000
REMARK 290   SMTRY2   4 -1.000000  0.000000  0.000000        0.00000
REMARK 290   SMTRY3   4  0.000000  0.000000  1.000000        9.89175
REMARK 290                                                            
REMARK 290 REMARK: NULL                                               
REMARK 300
REMARK 300 BIOMOLECULE: 1, 2
REMARK 300 SEE REMARK 350 FOR THE AUTHOR PROVIDED AND/OR PROGRAM
REMARK 300 GENERATED ASSEMBLY INFORMATION FOR THE STRUCTURE IN
REMARK 300 THIS ENTRY. THE REMARK MAY ALSO  PROVIDE INFORMATION ON
REMARK 300 BURIED SURFACE AREA.
REMARK 350
REMARK 350 COORDINATES FOR A COMPLETE MULTIMER REPRESENTING THE KNOWN
REMARK 350 BIOLOGICALLY SIGNIFICANT OLIGOMERIZATION STATE OF THE
REMARK 350 MOLECULE CAN BE GENERATED BY APPLYING BIOMT TRANSFORMATIONS
REMARK 350 GIVEN BELOW. BOTH NON-CRYSTALLOGRAPHIC AND
REMARK 350 CRYSTALLOGRAPHIC OPERATIONS ARE GIVEN.
REMARK 350
REMARK 350 BIOMOLECULE: 1
REMARK 350 SOFTWARE DETERMINED QUATERNARY STRUCTURE: MONOMERIC
REMARK 350 SOFTWARE USED: PISA
REMARK 350 SURFACE AREA OF THE MONOMER: 7778 ANGSTROM**2
REMARK 350 FREE ENERGY OF FOLDING: -153.9 KCAL/MOL
REMARK 350 APPLY THE FOLLOWING TO CHAINS: A,W
REMARK 350   BIOMT1   1  1.000000  0.000000  0.000000        0.00000
REMARK 350   BIOMT2   1  0.000000  1.000000  0.000000        0.00000
REMARK 350   BIOMT3   1  0.000000  0.000000  1.000000        0.00000
REMARK 350
REMARK 350 BIOMOLECULE: 2
REMARK 350 SOFTWARE DETERMINED QUATERNARY STRUCTURE: MONOMERIC
REMARK 350 SOFTWARE USED: PISA
REMARK 350 SURFACE AREA OF THE MONOMER: 8154 ANGSTROM**2
REMARK 350 FREE ENERGY OF FOLDING: -156.7 KCAL/MOL
REMARK 350 APPLY THE FOLLOWING TO CHAINS: B,W
REMARK 350   BIOMT1   1  1.000000  0.000000  0.000000        0.00000
REMARK 350   BIOMT2   1  0.000000  1.000000  0.000000        0.00000
REMARK 350   BIOMT3   1  0.000000  0.000000  1.000000        0.00000
CRYST1   89.197   89.197   39.567  90.00  90.00  90.00 P 43                     


$$$$
SARS2_Mac1A-A1201
  PyMOL3.0          3D                             0

 18 20  0  0  0  0  0  0  0  0999 V2000
   -1.1400   14.0050   -2.2950 N   0  0  0  0  0  0  0  0  0  0  0  0
    0.7760   12.3880   -2.3780 C   0  0  0  0  0  0  0  0  0  0  0  0
    0.1640   11.3470   -2.1790 O   0  0  0  0  0  0  0  0  0  0  0  0
    0.1050   13.6140   -2.9710 C   0  0  0  0  0  0  0  0  0  0  0  0
   -0.0170   14.2930   -0.2420 N   0  0  0  0  0  0  0  0  0  0  0  0
    2.0020   12.5280   -2.1590 O   0  0  0  0  0  0  0  0  0  0  0  0
   -0.3570   13.3370   -4.4130 C   0  0  0  0  0  0  0  0  0  0  0  0
   -1.0800   15.1110    1.7720 N   0  0  0  0  0  0  0  0  0  0  0  0
   -1.8170   11.4770   -3.8910 O   0  0  0  0  0  0  0  0  0  0  0  0
   -1.7990   12.8680   -4.2490 C   0  0  0  0  0  0  0  0  0  0  0  0
   -3.4040   15.7270    1.5110 N   0  0  0  0  0  0  0  0  0  0  0  0
   -2.3290   13.7620   -3.1390 C   0  0  0  0  0  0  0  0  0  0  0  0
   -1.1580   14.4550   -0.9480 C   0  0  0  0  0  0  0  0  0  0  0  0
   -0.0560   14.6360    1.0560 C   0  0  0  0  0  0  0  0  0  0  0  0
   -2.2080   15.2400    1.0510 C   0  0  0  0  0  0  0  0  0  0  0  0
   -4.2670   15.8190    0.4420 C   0  0  0  0  0  0  0  0  0  0  0  0
   -3.6640   15.3760   -0.6920 C   0  0  0  0  0  0  0  0  0  0  0  0
   -2.3370   14.9740   -0.3210 C   0  0  0  0  0  0  0  0  0  0  0  0
  1 12  1  0  0  0  0
  1 13  1  0  0  0  0
  2  4  1  0  0  0  0
  2  6  4  0  0  0  0
  2  3  4  0  0  0  0
  1  4  1  0  0  0  0
  4  7  1  0  0  0  0
  8 14  4  0  0  0  0
  7 10  1  0  0  0  0
  9 10  1  0  0  0  0
 11 15  4  0  0  0  0
 10 12  1  0  0  0  0
  5 13  4  0  0  0  0
 13 18  4  0  0  0  0
  5 14  4  0  0  0  0
  8 15  4  0  0  0  0
 11 16  4  0  0  0  0
 16 17  4  0  0  0  0
 15 18  4  0  0  0  0
 17 18  4  0  0  0  0
M  END
>  <pdb_header>
HEADER    ----                                    18-MAY-20                     
TITLE     ---                                                                   
EXPDTA    X-RAY DIFFRACTION                                                     
REMARK --------------------- added by autoBUSTER ---------------------------------START
REMARK run at   = Wed Apr 19 14:04:49 BST 2023
REMARK     in   = /dls/labxchem/data/lb32627/lb32627-1/processing/analysis/model_building/SARS2_Mac1A-A1201
REMARK     user = dcn76311
REMARK     cmd  = \
REMARK            /dls_sw/apps/GPhL/BUSTER/20230217/autoBUSTER/bin/linux64/refine \
REMARK            -p \
REMARK            /dls/labxchem/data/lb32627/lb32627-1/processing/analysis/model_building/SARS2_Mac1A-A1201/cootOut/Refi
REMARK            -m \
REMARK            /dls/labxchem/data/lb32627/lb32627-1/processing/analysis/model_building/SARS2_Mac1A-A1201/SARS2_Mac1A-
REMARK            -l \
REMARK            /dls/labxchem/data/lb32627/lb32627-1/processing/analysis/model_building/SARS2_Mac1A-A1201/ASAP-0008351
REMARK            -autoncs -M TLSbasic -d Refine_14
REMARK Files used:
REMARK   PDB              = Refine_14/pdbchk.pdb
REMARK   MTZ              = /dls/labxchem/data/lb32627/lb32627-1/processing/analysis/model_building/SARS2_Mac1A-A1201/SA
REMARK output written to subdirectory = Refine_14
REMARK best refinement for F,SIGF with R/Rfree 0.1823/0.2129
REMARK header records are copied from input PDB file (apart from REMARK 3!)
REMARK --------------------- added by autoBUSTER -----------------------------------END
REMARK --------------------- added by autoBUSTER -------------------------------
REMARK run at   = Wed Apr 12 11:05:04 BST 2023                                  
REMARK     in   = /dls/labxchem/data/lb32627/lb32627-1/processing/analysis/model
REMARK     user = dcn76311                                                      
REMARK     cmd  = \                                                             
REMARK            /dls_sw/apps/GPhL/BUSTER/20230217/autoBUSTER/bin/linux64/refin
REMARK            -p \                                                          
REMARK            /dls/labxchem/data/lb32627/lb32627-1/processing/analysis/model
REMARK            -m \                                                          
REMARK            /dls/labxchem/data/lb32627/lb32627-1/processing/analysis/model
REMARK            -l \                                                          
REMARK            /dls/labxchem/data/lb32627/lb32627-1/processing/analysis/model
REMARK            -autoncs -M TLSbasic -d Refine_13                             
REMARK Files used:                                                              
REMARK   PDB              = Refine_13/pdbchk.pdb                                
REMARK   MTZ              = /dls/labxchem/data/lb32627/lb32627-1/processing/anal
REMARK output written to subdirectory = Refine_13                               
REMARK best refinement for F,SIGF with R/Rfree 0.1823/0.2130                    
REMARK header records are copied from input PDB file (apart from REMARK 3!)     
REMARK --------------------- added by autoBUSTER -------------------------------
REMARK --------------------- added by autoBUSTER -------------------------------
REMARK run at   = Wed Apr 12 10:46:47 BST 2023                                  
REMARK     in   = /dls/labxchem/data/lb32627/lb32627-1/processing/analysis/model
REMARK     user = dcn76311                                                      
REMARK     cmd  = \                                                             
REMARK            /dls_sw/apps/GPhL/BUSTER/20230217/autoBUSTER/bin/linux64/refin
REMARK            -p \                                                          
REMARK            /dls/labxchem/data/lb32627/lb32627-1/processing/analysis/model
REMARK            -m \                                                          
REMARK            /dls/labxchem/data/lb32627/lb32627-1/processing/analysis/model
REMARK            -l \                                                          
REMARK            /dls/labxchem/data/lb32627/lb32627-1/processing/analysis/model
REMARK            -autoncs -M TLSbasic -d Refine_12                             
REMARK Files used:                                                              
REMARK   PDB              = Refine_12/pdbchk.pdb                                
REMARK   MTZ              = /dls/labxchem/data/lb32627/lb32627-1/processing/anal
REMARK output written to subdirectory = Refine_12                               
REMARK best refinement for F,SIGF with R/Rfree 0.1827/0.2130                    
REMARK header records are copied from input PDB file (apart from REMARK 3!)     
REMARK --------------------- added by autoBUSTER -------------------------------
REMARK --------------------- added by autoBUSTER -------------------------------
REMARK run at   = Wed Apr 12 10:29:13 BST 2023                                  
REMARK     in   = /dls/labxchem/data/lb32627/lb32627-1/processing/analysis/model
REMARK     user = dcn76311                                                      
REMARK     cmd  = \                                                             
REMARK            /dls_sw/apps/GPhL/BUSTER/20230217/autoBUSTER/bin/linux64/refin
REMARK            -p \                                                          
REMARK            /dls/labxchem/data/lb32627/lb32627-1/processing/analysis/model
REMARK            -m \                                                          
REMARK            /dls/labxchem/data/lb32627/lb32627-1/processing/analysis/model
REMARK            -l \                                                          
REMARK            /dls/labxchem/data/lb32627/lb32627-1/processing/analysis/model
REMARK            -autoncs -M TLSbasic -d Refine_11                             
REMARK Files used:                                                              
REMARK   PDB              = Refine_11/pdbchk.pdb                                
REMARK   MTZ              = /dls/labxchem/data/lb32627/lb32627-1/processing/anal
REMARK output written to subdirectory = Refine_11                               
REMARK best refinement for F,SIGF with R/Rfree 0.1824/0.2128                    
REMARK header records are copied from input PDB file (apart from REMARK 3!)     
REMARK --------------------- added by autoBUSTER -------------------------------
REMARK --------------------- added by autoBUSTER -------------------------------
REMARK run at   = Wed Apr 12 10:02:07 BST 2023                                  
REMARK     in   = /dls/labxchem/data/lb32627/lb32627-1/processing/analysis/model
REMARK     user = dcn76311                                                      
REMARK     cmd  = \                                                             
REMARK            /dls_sw/apps/GPhL/BUSTER/20230217/autoBUSTER/bin/linux64/refin
REMARK            -p \                                                          
REMARK            /dls/labxchem/data/lb32627/lb32627-1/processing/analysis/model
REMARK            -m \                                                          
REMARK            /dls/labxchem/data/lb32627/lb32627-1/processing/analysis/model
REMARK            -l \                                                          
REMARK            /dls/labxchem/data/lb32627/lb32627-1/processing/analysis/model
REMARK            -autoncs -M TLSbasic -d Refine_10                             
REMARK Files used:                                                              
REMARK   PDB              = Refine_10/pdbchk.pdb                                
REMARK   MTZ              = /dls/labxchem/data/lb32627/lb32627-1/processing/anal
REMARK output written to subdirectory = Refine_10                               
REMARK best refinement for F,SIGF with R/Rfree 0.1830/0.2134                    
REMARK header records are copied from input PDB file (apart from REMARK 3!)     
REMARK --------------------- added by autoBUSTER -------------------------------
REMARK --------------------- added by autoBUSTER -------------------------------
REMARK run at   = Tue Apr 11 14:17:22 BST 2023                                  
REMARK     in   = /dls/labxchem/data/lb32627/lb32627-1/processing/analysis/model
REMARK     user = dcn76311                                                      
REMARK     cmd  = \                                                             
REMARK            /dls_sw/apps/GPhL/BUSTER/20230217/autoBUSTER/bin/linux64/refin
REMARK            -p \                                                          
REMARK            /dls/labxchem/data/lb32627/lb32627-1/processing/analysis/model
REMARK            -m \                                                          
REMARK            /dls/labxchem/data/lb32627/lb32627-1/processing/analysis/model
REMARK            -l \                                                          
REMARK            /dls/labxchem/data/lb32627/lb32627-1/processing/analysis/model
REMARK            -autoncs -M TLSbasic -d Refine_9                              
REMARK Files used:                                                              
REMARK   PDB              = Refine_9/pdbchk.pdb                                 
REMARK   MTZ              = /dls/labxchem/data/lb32627/lb32627-1/processing/anal
REMARK output written to subdirectory = Refine_9                                
REMARK best refinement for F,SIGF with R/Rfree 0.1829/0.2131                    
REMARK header records are copied from input PDB file (apart from REMARK 3!)     
REMARK --------------------- added by autoBUSTER -------------------------------
REMARK --------------------- added by autoBUSTER -------------------------------
REMARK run at   = Tue Apr 11 11:30:34 BST 2023                                  
REMARK     in   = /dls/labxchem/data/lb32627/lb32627-1/processing/analysis/model
REMARK     user = dcn76311                                                      
REMARK     cmd  = \                                                             
REMARK            /dls_sw/apps/GPhL/BUSTER/20230217/autoBUSTER/bin/linux64/refin
REMARK            -p \                                                          
REMARK            /dls/labxchem/data/lb32627/lb32627-1/processing/analysis/model
REMARK            -m \                                                          
REMARK            /dls/labxchem/data/lb32627/lb32627-1/processing/analysis/model
REMARK            -l \                                                          
REMARK            /dls/labxchem/data/lb32627/lb32627-1/processing/analysis/model
REMARK            -autoncs -M TLSbasic -d Refine_8                              
REMARK Files used:                                                              
REMARK   PDB              = Refine_8/pdbchk.pdb                                 
REMARK   MTZ              = /dls/labxchem/data/lb32627/lb32627-1/processing/anal
REMARK output written to subdirectory = Refine_8                                
REMARK best refinement for F,SIGF with R/Rfree 0.1834/0.2153                    
REMARK header records are copied from input PDB file (apart from REMARK 3!)     
REMARK --------------------- added by autoBUSTER -------------------------------
REMARK --------------------- added by autoBUSTER -------------------------------
REMARK run at   = Tue Apr 11 10:14:45 BST 2023                                  
REMARK     in   = /dls/labxchem/data/lb32627/lb32627-1/processing/analysis/model
REMARK     user = dcn76311                                                      
REMARK     cmd  = \                                                             
REMARK            /dls_sw/apps/GPhL/BUSTER/20230217/autoBUSTER/bin/linux64/refin
REMARK            -p \                                                          
REMARK            /dls/labxchem/data/lb32627/lb32627-1/processing/analysis/model
REMARK            -m \                                                          
REMARK            /dls/labxchem/data/lb32627/lb32627-1/processing/analysis/model
REMARK            -l \                                                          
REMARK            /dls/labxchem/data/lb32627/lb32627-1/processing/analysis/model
REMARK            -autoncs -M TLSbasic -d Refine_7                              
REMARK Files used:                                                              
REMARK   PDB              = Refine_7/pdbchk.pdb                                 
REMARK   MTZ              = /dls/labxchem/data/lb32627/lb32627-1/processing/anal
REMARK output written to subdirectory = Refine_7                                
REMARK best refinement for F,SIGF with R/Rfree 0.1836/0.2168                    
REMARK header records are copied from input PDB file (apart from REMARK 3!)     
REMARK --------------------- added by autoBUSTER -------------------------------
REMARK --------------------- added by autoBUSTER -------------------------------
REMARK run at   = Wed Apr  5 10:58:20 BST 2023                                  
REMARK     in   = /dls/labxchem/data/lb32627/lb32627-1/processing/analysis/model
REMARK     user = dcn76311                                                      
REMARK     cmd  = \                                                             
REMARK            /dls_sw/apps/GPhL/BUSTER/20230217/autoBUSTER/bin/linux64/refin
REMARK            -p \                                                          
REMARK            /dls/labxchem/data/lb32627/lb32627-1/processing/analysis/model
REMARK            -m \                                                          
REMARK            /dls/labxchem/data/lb32627/lb32627-1/processing/analysis/model
REMARK            -l \                                                          
REMARK            /dls/labxchem/data/lb32627/lb32627-1/processing/analysis/model
REMARK            -autoncs -M TLSbasic -d Refine_6                              
REMARK Files used:                                                              
REMARK   PDB              = Refine_6/pdbchk.pdb                                 
REMARK   MTZ              = /dls/labxchem/data/lb32627/lb32627-1/processing/anal
REMARK output written to subdirectory = Refine_6                                
REMARK best refinement for F,SIGF with R/Rfree 0.1840/0.2167                    
REMARK header records are copied from input PDB file (apart from REMARK 3!)     
REMARK --------------------- added by autoBUSTER -------------------------------
REMARK --------------------- added by autoBUSTER -------------------------------
REMARK run at   = Wed Apr  5 10:03:18 BST 2023                                  
REMARK     in   = /dls/labxchem/data/lb32627/lb32627-1/processing/analysis/model
REMARK     user = dcn76311                                                      
REMARK     cmd  = \                                                             
REMARK            /dls_sw/apps/GPhL/BUSTER/20230217/autoBUSTER/bin/linux64/refin
REMARK            -p \                                                          
REMARK            /dls/labxchem/data/lb32627/lb32627-1/processing/analysis/model
REMARK            -m \                                                          
REMARK            /dls/labxchem/data/lb32627/lb32627-1/processing/analysis/model
REMARK            -l \                                                          
REMARK            /dls/labxchem/data/lb32627/lb32627-1/processing/analysis/model
REMARK            -autoncs -M TLSbasic -d Refine_5                              
REMARK Files used:                                                              
REMARK   PDB              = Refine_5/pdbchk.pdb                                 
REMARK   MTZ              = /dls/labxchem/data/lb32627/lb32627-1/processing/anal
REMARK output written to subdirectory = Refine_5                                
REMARK best refinement for F,SIGF with R/Rfree 0.1843/0.2163                    
REMARK header records are copied from input PDB file (apart from REMARK 3!)     
REMARK --------------------- added by autoBUSTER -------------------------------
REMARK --------------------- added by autoBUSTER -------------------------------
REMARK run at   = Tue Apr  4 12:54:31 BST 2023                                  
REMARK     in   = /dls/labxchem/data/lb32627/lb32627-1/processing/analysis/model
REMARK     user = dcn76311                                                      
REMARK     cmd  = \                                                             
REMARK            /dls_sw/apps/GPhL/BUSTER/20230217/autoBUSTER/bin/linux64/refin
REMARK            -p \                                                          
REMARK            /dls/labxchem/data/lb32627/lb32627-1/processing/analysis/model
REMARK            -m \                                                          
REMARK            /dls/labxchem/data/lb32627/lb32627-1/processing/analysis/model
REMARK            -l \                                                          
REMARK            /dls/labxchem/data/lb32627/lb32627-1/processing/analysis/model
REMARK            -autoncs -M TLSbasic -d Refine_4                              
REMARK Files used:                                                              
REMARK   PDB              = Refine_4/pdbchk.pdb                                 
REMARK   MTZ              = /dls/labxchem/data/lb32627/lb32627-1/processing/anal
REMARK output written to subdirectory = Refine_4                                
REMARK best refinement for F,SIGF with R/Rfree 0.1859/0.2179                    
REMARK header records are copied from input PDB file (apart from REMARK 3!)     
REMARK --------------------- added by autoBUSTER -------------------------------
REMARK --------------------- added by autoBUSTER -------------------------------
REMARK run at   = Wed Mar  8 13:17:41 GMT 2023                                  
REMARK     in   = /dls/labxchem/data/lb32627/lb32627-1/processing/analysis/model
REMARK     user = dcn76311                                                      
REMARK     cmd  = \                                                             
REMARK            /dls_sw/apps/GPhL/BUSTER/20221121/autoBUSTER/bin/linux64/refin
REMARK            -p \                                                          
REMARK            /dls/labxchem/data/lb32627/lb32627-1/processing/analysis/model
REMARK            -m \                                                          
REMARK            /dls/labxchem/data/lb32627/lb32627-1/processing/analysis/model
REMARK            -l \                                                          
REMARK            /dls/labxchem/data/lb32627/lb32627-1/processing/analysis/model
REMARK            -autoncs -M TLSbasic -d Refine_3                              
REMARK Files used:                                                              
REMARK   PDB              = Refine_3/pdbchk.pdb                                 
REMARK   MTZ              = /dls/labxchem/data/lb32627/lb32627-1/processing/anal
REMARK output written to subdirectory = Refine_3                                
REMARK best refinement for F,SIGF with R/Rfree 0.1867/0.2185                    
REMARK header records are copied from input PDB file (apart from REMARK 3!)     
REMARK --------------------- added by autoBUSTER -------------------------------
REMARK --------------------- added by autoBUSTER -------------------------------
REMARK run at   = Tue Mar  7 15:27:44 GMT 2023                                  
REMARK     in   = /dls/labxchem/data/lb32627/lb32627-1/processing/analysis/model
REMARK     user = dcn76311                                                      
REMARK     cmd  = \                                                             
REMARK            /dls_sw/apps/GPhL/BUSTER/20221121/autoBUSTER/bin/linux64/refin
REMARK            -p \                                                          
REMARK            /dls/labxchem/data/lb32627/lb32627-1/processing/analysis/model
REMARK            -m \                                                          
REMARK            /dls/labxchem/data/lb32627/lb32627-1/processing/analysis/model
REMARK            -l \                                                          
REMARK            /dls/labxchem/data/lb32627/lb32627-1/processing/analysis/model
REMARK            -autoncs -M TLSbasic -d Refine_2                              
REMARK Files used:                                                              
REMARK   PDB              = Refine_2/pdbchk.pdb                                 
REMARK   MTZ              = /dls/labxchem/data/lb32627/lb32627-1/processing/anal
REMARK output written to subdirectory = Refine_2                                
REMARK best refinement for F,SIGF with R/Rfree 0.1868/0.2234                    
REMARK header records are copied from input PDB file (apart from REMARK 3!)     
REMARK --------------------- added by autoBUSTER -------------------------------
REMARK --------------------- added by autoBUSTER -------------------------------
REMARK run at   = Fri Mar  3 15:13:13 GMT 2023                                  
REMARK     in   = /dls/labxchem/data/lb32627/lb32627-1/processing/analysis/model
REMARK     user = dcn76311                                                      
REMARK     cmd  = \                                                             
REMARK            /dls_sw/apps/GPhL/BUSTER/20221121/autoBUSTER/bin/linux64/refin
REMARK            -p \                                                          
REMARK            /dls/labxchem/data/lb32627/lb32627-1/processing/analysis/model
REMARK            -m \                                                          
REMARK            /dls/labxchem/data/lb32627/lb32627-1/processing/analysis/model
REMARK            -l \                                                          
REMARK            /dls/labxchem/data/lb32627/lb32627-1/processing/analysis/model
REMARK            -autoncs -M TLSbasic -d Refine_1                              
REMARK Files used:                                                              
REMARK   PDB              = Refine_1/pdbchk.pdb                                 
REMARK   MTZ              = /dls/labxchem/data/lb32627/lb32627-1/processing/anal
REMARK output written to subdirectory = Refine_1                                
REMARK best refinement for F,SIGF with R/Rfree 0.1875/0.2234                    
REMARK header records are copied from input PDB file (apart from REMARK 3!)     
REMARK --------------------- added by autoBUSTER -------------------------------
REMARK   2                                                            
REMARK   2 RESOLUTION.    1.26 ANGSTROMS.
REMARK   3
REMARK   3 REFINEMENT.
REMARK   3   PROGRAM     : BUSTER 2.10.4 (17-FEB-2023)
REMARK   3   AUTHORS     : BRICOGNE,BLANC,BRANDL,FLENSBURG,KELLER,
REMARK   3               : PACIOREK,ROVERSI,SHARFF,SMART,VONRHEIN,WOMACK;
REMARK   3               : MATTHEWS,TEN EYCK,TRONRUD
REMARK   3
REMARK   3  DATA USED IN REFINEMENT.
REMARK   3   RESOLUTION RANGE HIGH (ANGSTROMS) : 1.260
REMARK   3   RESOLUTION RANGE LOW  (ANGSTROMS) : 18.10
REMARK   3   DATA CUTOFF            (SIGMA(F)) : 0.000
REMARK   3   COMPLETENESS FOR RANGE        (%) : 96.7
REMARK   3   NUMBER OF REFLECTIONS             : 81738
REMARK   3
REMARK   3  FIT TO DATA USED IN REFINEMENT.
REMARK   3   CROSS-VALIDATION METHOD          : THROUGHOUT
REMARK   3   FREE R VALUE TEST SET SELECTION  : RANDOM
REMARK   3   R VALUE     (WORKING + TEST SET) : 0.1837
REMARK   3   R VALUE            (WORKING SET) : 0.1823
REMARK   3   FREE R VALUE                     : 0.2129
REMARK   3   FREE R VALUE TEST SET SIZE   (%) : 4.960
REMARK   3   FREE R VALUE TEST SET COUNT      : 4058
REMARK   3   ESTIMATED ERROR OF FREE R VALUE  : NULL
REMARK   3
REMARK   3  FIT IN THE HIGHEST RESOLUTION BIN.
REMARK   3   TOTAL NUMBER OF BINS USED           : 51
REMARK   3   BIN RESOLUTION RANGE HIGH       (A) : 1.26
REMARK   3   BIN RESOLUTION RANGE LOW        (A) : 1.27
REMARK   3   BIN COMPLETENESS (WORKING+TEST) (%) : 65.81
REMARK   3   REFLECTIONS IN BIN   (WORKING+TEST) : 1635
REMARK   3   BIN R VALUE          (WORKING+TEST) : 0.4086
REMARK   3   REFLECTIONS IN BIN    (WORKING SET) : 1556
REMARK   3   BIN R VALUE           (WORKING SET) : 0.4085
REMARK   3   BIN FREE R VALUE                    : 0.4102
REMARK   3   BIN FREE R VALUE TEST SET SIZE  (%) : 4.83
REMARK   3   BIN FREE R VALUE TEST SET COUNT     : 79
REMARK   3   ESTIMATED ERROR OF BIN FREE R VALUE : NULL
REMARK   3
REMARK   3  NUMBER OF NON-HYDROGEN ATOMS USED IN REFINEMENT.
REMARK   3   PROTEIN ATOMS            : 2519
REMARK   3   NUCLEIC ACID ATOMS       : 0
REMARK   3   HETEROGEN ATOMS          : 34
REMARK   3   SOLVENT ATOMS            : 410
REMARK   3
REMARK   3  B VALUES.
REMARK   3   FROM WILSON PLOT           (A**2) : 16.75
REMARK   3   MEAN B VALUE      (OVERALL, A**2) : 22.50
REMARK   3   OVERALL ANISOTROPIC B VALUE.
REMARK   3    B11 (A**2) : 2.04450
REMARK   3    B22 (A**2) : 2.04450
REMARK   3    B33 (A**2) : -4.08890
REMARK   3    B12 (A**2) : 0.00000
REMARK   3    B13 (A**2) : 0.00000
REMARK   3    B23 (A**2) : 0.00000
REMARK   3
REMARK   3  ESTIMATED COORDINATE ERROR.
REMARK   3   ESD FROM LUZZATI PLOT                    (A) : 0.17
REMARK   3   DPI (BLOW EQ-10) BASED ON R VALUE        (A) : 0.051
REMARK   3   DPI (BLOW EQ-9) BASED ON FREE R VALUE    (A) : 0.054
REMARK   3   DPI (CRUICKSHANK) BASED ON R VALUE       (A) : 0.048
REMARK   3   DPI (CRUICKSHANK) BASED ON FREE R VALUE  (A) : 0.052
REMARK   3
REMARK   3   REFERENCES: BLOW, D. (2002) ACTA CRYST D58, 792-797
REMARK   3               CRUICKSHANK, D.W.J. (1999) ACTA CRYST D55, 583-601
REMARK   3
REMARK   3  CORRELATION COEFFICIENTS.
REMARK   3   CORRELATION COEFFICIENT FO-FC      : 0.968
REMARK   3   CORRELATION COEFFICIENT FO-FC FREE : 0.962
REMARK   3
REMARK   3  X-RAY WEIGHT : 5.27
REMARK   3
REMARK   3  GEOMETRY FUNCTION.                                                  
REMARK   3   RESTRAINT LIBRARIES.                                               
REMARK   3    NUMBER OF LIBRARIES USED :   9                                    
REMARK   3    LIBRARY  1 : protgeo_eh99.dat (V1.6.4.20) 20220523  STANDARD      
REMARK   3                 AMINO ACID DICTIONARY. BONDS AND ANGLES FROM         
REMARK   3                 ENGH AND HUBER EH99. OTHER VALUES BASED ON           
REMARK   3                 PREVIOUS TNT OR TAKEN FROM CCP4. INCLUDES            
REMARK   3                 HYDROGEN ATOMS.                                      
REMARK   3    LIBRARY  2 : exoticaa.dat (V1.3.4.16) 20220523  COLLECTION        
REMARK   3                 OF NON-STANDARD AMINO ACIDS, MAINLY EH91             
REMARK   3                 WITHOUT IDEAL DISTANCE INFO                          
REMARK   3    LIBRARY  3 : nuclgeo.dat (V1.13.4.9) 20221011                     
REMARK   3    LIBRARY  4 : bcorrel.dat (V1.15.10.2) 20190616                    
REMARK   3    LIBRARY  5 : contact.dat (V1.15.12.10) 20191121                   
REMARK   3    LIBRARY  6 : idealdist_contact.dat (V1.3.4.13) 20220125           
REMARK   3                 IDEAL-DISTANCE CONTACT TERM DATA AS USED IN          
REMARK   3                 PROLSQ. VALUES USED HERE ARE BASED ON DATA           
REMARK   3                 HARVESTING OF PDB AS OF 20190109.                    
REMARK   3    LIBRARY  7 : restraints for LIG (unknown) from cif                
REMARK   3                 dictionary ASAP-0008351-001.cif; generated by        
REMARK   3                 GRADE 1.2.21 (Feb 03 2022) from SMILES               
REMARK   3                 O=C(O)[C@H]1C[C@@H](O)CN1c1ncnc2[nH]ccc12 using      
REMARK   3                 MOGUL 1.8.5(274361), CSD as541be, with quantum       
REMARK   3                 mechanics RM1                                        
REMARK   3    LIBRARY  8 : restraints for DMS (DIMETHYL SULFOXIDE) from         
REMARK   3                 cif dictionary DMS.cif; generated by grade2          
REMARK   3                 version 1.1.0a7 from                                 
REMARK   3                 PDB_chemical_components_definition_file              
REMARK   3                 ftp://ftp.ebi.ac.uk/pub/databases/msd/pdbechem_v     
REMARK   3                 2/D/DMS/DMS.cif using RDKit 2021.03.4                
REMARK   3                 ((DatabaseID PDB-DMS))                               
REMARK   3    LIBRARY  9 : assume.dat (V1.9.4.3) 20221011                       
REMARK   3                                                                      
REMARK   3   NUMBER OF GEOMETRIC FUNCTION TERMS DEFINED : 15                    
REMARK   3   TERM                          COUNT    WEIGHT   FUNCTION.          
REMARK   3    BOND LENGTHS              :   2648 ;   2.00 ;  HARMONIC           
REMARK   3    BOND ANGLES               :   3610 ;   2.00 ;  HARMONIC           
REMARK   3    TORSION ANGLES            :    902 ;   2.00 ;  SINUSOIDAL         
REMARK   3    TRIGONAL CARBON PLANES    :   NULL ;   NULL ;  NULL               
REMARK   3    GENERAL PLANES            :    471 ;   5.00 ;  HARMONIC           
REMARK   3    ISOTROPIC THERMAL FACTORS :   2648 ;  10.00 ;  HARMONIC           
REMARK   3    BAD NON-BONDED CONTACTS   :   NULL ;   NULL ;  NULL               
REMARK   3    IMPROPER TORSIONS         :   NULL ;   NULL ;  NULL               
REMARK   3    PSEUDOROTATION ANGLES     :   NULL ;   NULL ;  NULL               
REMARK   3    CHIRAL IMPROPER TORSION   :    341 ;   5.00 ;  SEMIHARMONIC       
REMARK   3    SUM OF OCCUPANCIES        :   NULL ;   NULL ;  NULL               
REMARK   3    UTILITY DISTANCES         :   NULL ;   NULL ;  NULL               
REMARK   3    UTILITY ANGLES            :   NULL ;   NULL ;  NULL               
REMARK   3    UTILITY TORSION           :   NULL ;   NULL ;  NULL               
REMARK   3    IDEAL-DIST CONTACT TERM   :   2544 ;   4.00 ;  SEMIHARMONIC       
REMARK   3                                                                      
REMARK   3   RMS DEVIATIONS FROM IDEAL VALUES.                                  
REMARK   3   BOND LENGTHS                       (A) : 0.013                     
REMARK   3   BOND ANGLES                  (DEGREES) : 1.15                      
REMARK   3   PEPTIDE OMEGA TORSION ANGLES (DEGREES) : 4.71                      
REMARK   3   OTHER TORSION ANGLES         (DEGREES) : 14.13                     
REMARK   3                                                                      
REMARK   3   SIMILARITY.                                                        
REMARK   3    NCS.                                                              
REMARK   3     NCS METHOD: RESTRAINT LSSR (-AUTONCS)                            
REMARK   3    TARGET RESTRAINTS.                                                
REMARK   3     TARGET REPRESENTATION : NONE                                     
REMARK   3     TARGET STRUCTURE : NULL                                          
REMARK   3                                                                      
REMARK   3  TLS DETAILS.                                                        
REMARK   3   NUMBER OF TLS GROUPS  :            2                               
REMARK   3                                                                      
REMARK   3   TLS GROUP :            1                                           
REMARK   3    SET : { A|* }                                                     
REMARK   3    ORIGIN FOR THE GROUP (A):    4.1364   21.5799   -0.3215           
REMARK   3    T TENSOR                                                          
REMARK   3     T11:   -0.0092 T22:   -0.0196                                    
REMARK   3     T33:    0.0025 T12:   -0.0015                                    
REMARK   3     T13:   -0.0278 T23:    0.0064                                    
REMARK   3    L TENSOR                                                          
REMARK   3     L11:    0.8617 L22:    1.1400                                    
REMARK   3     L33:    0.0362 L12:   -0.3473                                    
REMARK   3     L13:    0.0440 L23:   -0.0024                                    
REMARK   3    S TENSOR                                                          
REMARK   3     S11:    0.0089 S12:   -0.0168 S13:   -0.0559                     
REMARK   3     S21:    0.0599 S22:    0.0055 S23:   -0.0839                     
REMARK   3     S31:   -0.0001 S32:   -0.0344 S33:   -0.0144                     
REMARK   3                                                                      
REMARK   3   TLS GROUP :            2                                           
REMARK   3    SET : { B|* }                                                     
REMARK   3    ORIGIN FOR THE GROUP (A):   22.4612   43.4080   -7.7253           
REMARK   3    T TENSOR                                                          
REMARK   3     T11:   -0.0333 T22:   -0.0190                                    
REMARK   3     T33:    0.0142 T12:    0.0071                                    
REMARK   3     T13:   -0.0080 T23:   -0.0043                                    
REMARK   3    L TENSOR                                                          
REMARK   3     L11:    1.0965 L22:    1.1605                                    
REMARK   3     L33:    0.1640 L12:   -0.1917                                    
REMARK   3     L13:   -0.2425 L23:    0.0926                                    
REMARK   3    S TENSOR                                                          
REMARK   3     S11:    0.0627 S12:    0.0055 S13:   -0.0767                     
REMARK   3     S21:    0.0023 S22:   -0.0591 S23:   -0.1145                     
REMARK   3     S31:   -0.0501 S32:   -0.0118 S33:   -0.0036                     
REMARK   3                                                                      
REMARK   3  REFINEMENT NOTES.                                                   
REMARK   3   NUMBER OF REFINEMENT NOTES :   1                                   
REMARK   3   NOTE   1 : IDEAL-DIST CONTACT TERM CONTACT SETUP. ALL ATOMS        
REMARK   3               HAVE CCP4 ATOM TYPE FROM LIBRARY                       
REMARK   3
REMARK   3  OTHER REFINEMENT REMARKS: NULL
REMARK   3
REMARK 290                                                            
REMARK 290 CRYSTALLOGRAPHIC SYMMETRY                                  
REMARK 290 SYMMETRY OPERATORS FOR SPACE GROUP: P 43                   
REMARK 290                                                            
REMARK 290      SYMOP   SYMMETRY                                      
REMARK 290     NNNMMM   OPERATOR                                      
REMARK 290       1555   X,Y,Z                                         
REMARK 290       2555   -X,-Y,1/2+Z                                   
REMARK 290       3555   -Y,X,3/4+Z                                    
REMARK 290       4555   Y,-X,1/4+Z                                    
REMARK 290                                                            
REMARK 290     WHERE NNN -> OPERATOR NUMBER                           
REMARK 290           MMM -> TRANSLATION VECTOR                        
REMARK 290                                                            
REMARK 290 CRYSTALLOGRAPHIC SYMMETRY TRANSFORMATIONS                  
REMARK 290 THE FOLLOWING TRANSFORMATIONS OPERATE ON THE ATOM/HETATM   
REMARK 290 RECORDS IN THIS ENTRY TO PRODUCE CRYSTALLOGRAPHICALLY      
REMARK 290 RELATED MOLECULES.                                         
REMARK 290   SMTRY1   1  1.000000  0.000000  0.000000        0.00000
REMARK 290   SMTRY2   1  0.000000  1.000000  0.000000        0.00000
REMARK 290   SMTRY3   1  0.000000  0.000000  1.000000        0.00000
REMARK 290   SMTRY1   2 -1.000000  0.000000  0.000000        0.00000
REMARK 290   SMTRY2   2  0.000000 -1.000000  0.000000        0.00000
REMARK 290   SMTRY3   2  0.000000  0.000000  1.000000       19.80000
REMARK 290   SMTRY1   3  0.000000 -1.000000  0.000000        0.00000
REMARK 290   SMTRY2   3  1.000000  0.000000  0.000000        0.00000
REMARK 290   SMTRY3   3  0.000000  0.000000  1.000000       29.70000
REMARK 290   SMTRY1   4  0.000000  1.000000  0.000000        0.00000
REMARK 290   SMTRY2   4 -1.000000  0.000000  0.000000        0.00000
REMARK 290   SMTRY3   4  0.000000  0.000000  1.000000        9.90000
REMARK 290                                                            
REMARK 290 REMARK: NULL                                               
REMARK 300
REMARK 300 BIOMOLECULE: 1, 2
REMARK 300 SEE REMARK 350 FOR THE AUTHOR PROVIDED AND/OR PROGRAM
REMARK 300 GENERATED ASSEMBLY INFORMATION FOR THE STRUCTURE IN
REMARK 300 THIS ENTRY. THE REMARK MAY ALSO  PROVIDE INFORMATION ON
REMARK 300 BURIED SURFACE AREA.
REMARK 350
REMARK 350 COORDINATES FOR A COMPLETE MULTIMER REPRESENTING THE KNOWN
REMARK 350 BIOLOGICALLY SIGNIFICANT OLIGOMERIZATION STATE OF THE
REMARK 350 MOLECULE CAN BE GENERATED BY APPLYING BIOMT TRANSFORMATIONS
REMARK 350 GIVEN BELOW. BOTH NON-CRYSTALLOGRAPHIC AND
REMARK 350 CRYSTALLOGRAPHIC OPERATIONS ARE GIVEN.
REMARK 350
REMARK 350 BIOMOLECULE: 1
REMARK 350 SOFTWARE DETERMINED QUATERNARY STRUCTURE: MONOMERIC
REMARK 350 SOFTWARE USED: PISA
REMARK 350 SURFACE AREA OF THE MONOMER: 7782 ANGSTROM**2
REMARK 350 FREE ENERGY OF FOLDING: -154.3 KCAL/MOL
REMARK 350 APPLY THE FOLLOWING TO CHAINS: A,C
REMARK 350   BIOMT1   1  1.000000  0.000000  0.000000        0.00000
REMARK 350   BIOMT2   1  0.000000  1.000000  0.000000        0.00000
REMARK 350   BIOMT3   1  0.000000  0.000000  1.000000        0.00000
REMARK 350
REMARK 350 BIOMOLECULE: 2
REMARK 350 SOFTWARE DETERMINED QUATERNARY STRUCTURE: MONOMERIC
REMARK 350 SOFTWARE USED: PISA
REMARK 350 SURFACE AREA OF THE MONOMER: 8139 ANGSTROM**2
REMARK 350 FREE ENERGY OF FOLDING: -156.5 KCAL/MOL
REMARK 350 APPLY THE FOLLOWING TO CHAINS: B,C
REMARK 350   BIOMT1   1  1.000000  0.000000  0.000000        0.00000
REMARK 350   BIOMT2   1  0.000000  1.000000  0.000000        0.00000
REMARK 350   BIOMT3   1  0.000000  0.000000  1.000000        0.00000
CRYST1   89.250   89.250   39.600  90.00  90.00  90.00 P 43                     


$$$$
SARS2_Mac1A-A1210
  PyMOL3.0          3D                             0

 18 20  0  0  0  0  0  0  0  0999 V2000
   -0.2520   11.7530   -5.3750 N   0  0  0  0  0  0  0  0  0  0  0  0
    0.5830   12.2430   -3.1080 C   0  0  0  0  0  0  0  0  0  0  0  0
    1.1620   12.8640   -2.2270 O   0  0  0  0  0  0  0  0  0  0  0  0
    0.4310   12.7340   -4.5450 C   0  0  0  0  0  0  0  0  0  0  0  0
    1.1050   12.0160   -7.2250 N   0  0  0  0  0  0  0  0  0  0  0  0
    0.0420   11.0950   -2.9120 O   0  0  0  0  0  0  0  0  0  0  0  0
   -0.2930   14.0850   -4.6040 C   0  0  0  0  0  0  0  0  0  0  0  0
    1.0760   10.4560   -9.0480 N   0  0  0  0  0  0  0  0  0  0  0  0
   -1.7520   14.0580   -4.1460 C   0  0  0  0  0  0  0  0  0  0  0  0
   -0.6260    8.7320   -8.8860 N   0  0  0  0  0  0  0  0  0  0  0  0
   -2.0390   14.2190   -2.6650 C   0  0  0  0  0  0  0  0  0  0  0  0
   -2.3980   15.3310   -3.6190 C   0  0  0  0  0  0  0  0  0  0  0  0
    0.1290   11.3340   -6.5910 C   0  0  0  0  0  0  0  0  0  0  0  0
    1.5250   11.5330   -8.3930 C   0  0  0  0  0  0  0  0  0  0  0  0
    0.0750    9.8140   -8.4160 C   0  0  0  0  0  0  0  0  0  0  0  0
   -1.5980    8.4130   -7.9560 C   0  0  0  0  0  0  0  0  0  0  0  0
   -1.5280    9.2590   -6.8950 C   0  0  0  0  0  0  0  0  0  0  0  0
   -0.4530   10.1720   -7.1680 C   0  0  0  0  0  0  0  0  0  0  0  0
  1 13  1  0  0  0  0
  2  4  1  0  0  0  0
  2  6  4  0  0  0  0
  2  3  4  0  0  0  0
  1  4  1  0  0  0  0
  4  7  1  0  0  0  0
  7  9  1  0  0  0  0
  8 14  4  0  0  0  0
  9 11  1  0  0  0  0
  9 12  1  0  0  0  0
 10 15  4  0  0  0  0
 11 12  1  0  0  0  0
  5 13  4  0  0  0  0
 13 18  4  0  0  0  0
  5 14  4  0  0  0  0
  8 15  4  0  0  0  0
 10 16  4  0  0  0  0
 16 17  4  0  0  0  0
 15 18  4  0  0  0  0
 17 18  4  0  0  0  0
M  END
>  <pdb_header>
HEADER    ----                                    18-MAY-20                     
TITLE     ---                                                                   
EXPDTA    X-RAY DIFFRACTION                                                     
REMARK --------------------- added by autoBUSTER ---------------------------------START
REMARK run at   = Wed Apr 19 14:46:26 BST 2023
REMARK     in   = /dls/labxchem/data/lb32627/lb32627-1/processing/analysis/model_building/SARS2_Mac1A-A1210
REMARK     user = dcn76311
REMARK     cmd  = \
REMARK            /dls_sw/apps/GPhL/BUSTER/20230217/autoBUSTER/bin/linux64/refine \
REMARK            -p \
REMARK            /dls/labxchem/data/lb32627/lb32627-1/processing/analysis/model_building/SARS2_Mac1A-A1210/cootOut/Refi
REMARK            -m \
REMARK            /dls/labxchem/data/lb32627/lb32627-1/processing/analysis/model_building/SARS2_Mac1A-A1210/SARS2_Mac1A-
REMARK            -l \
REMARK            /dls/labxchem/data/lb32627/lb32627-1/processing/analysis/model_building/SARS2_Mac1A-A1210/ASAP-0008338
REMARK            -autoncs -M TLSbasic -d Refine_18
REMARK Files used:
REMARK   PDB              = Refine_18/pdbchk.pdb
REMARK   MTZ              = /dls/labxchem/data/lb32627/lb32627-1/processing/analysis/model_building/SARS2_Mac1A-A1210/SA
REMARK output written to subdirectory = Refine_18
REMARK best refinement for F,SIGF with R/Rfree 0.1702/0.1949
REMARK header records are copied from input PDB file (apart from REMARK 3!)
REMARK --------------------- added by autoBUSTER -----------------------------------END
REMARK --------------------- added by autoBUSTER -------------------------------
REMARK run at   = Wed Apr 19 14:28:50 BST 2023                                  
REMARK     in   = /dls/labxchem/data/lb32627/lb32627-1/processing/analysis/model
REMARK     user = dcn76311                                                      
REMARK     cmd  = \                                                             
REMARK            /dls_sw/apps/GPhL/BUSTER/20230217/autoBUSTER/bin/linux64/refin
REMARK            -p \                                                          
REMARK            /dls/labxchem/data/lb32627/lb32627-1/processing/analysis/model
REMARK            -m \                                                          
REMARK            /dls/labxchem/data/lb32627/lb32627-1/processing/analysis/model
REMARK            -l \                                                          
REMARK            /dls/labxchem/data/lb32627/lb32627-1/processing/analysis/model
REMARK            -autoncs -M TLSbasic -d Refine_17                             
REMARK Files used:                                                              
REMARK   PDB              = Refine_17/pdbchk.pdb                                
REMARK   MTZ              = /dls/labxchem/data/lb32627/lb32627-1/processing/anal
REMARK output written to subdirectory = Refine_17                               
REMARK best refinement for F,SIGF with R/Rfree 0.1703/0.1949                    
REMARK header records are copied from input PDB file (apart from REMARK 3!)     
REMARK --------------------- added by autoBUSTER -------------------------------
REMARK --------------------- added by autoBUSTER -------------------------------
REMARK run at   = Wed Apr 19 14:08:47 BST 2023                                  
REMARK     in   = /dls/labxchem/data/lb32627/lb32627-1/processing/analysis/model
REMARK     user = dcn76311                                                      
REMARK     cmd  = \                                                             
REMARK            /dls_sw/apps/GPhL/BUSTER/20230217/autoBUSTER/bin/linux64/refin
REMARK            -p \                                                          
REMARK            /dls/labxchem/data/lb32627/lb32627-1/processing/analysis/model
REMARK            -m \                                                          
REMARK            /dls/labxchem/data/lb32627/lb32627-1/processing/analysis/model
REMARK            -l \                                                          
REMARK            /dls/labxchem/data/lb32627/lb32627-1/processing/analysis/model
REMARK            -autoncs -M TLSbasic -d Refine_16                             
REMARK Files used:                                                              
REMARK   PDB              = Refine_16/pdbchk.pdb                                
REMARK   MTZ              = /dls/labxchem/data/lb32627/lb32627-1/processing/anal
REMARK output written to subdirectory = Refine_16                               
REMARK best refinement for F,SIGF with R/Rfree 0.1703/0.1953                    
REMARK header records are copied from input PDB file (apart from REMARK 3!)     
REMARK --------------------- added by autoBUSTER -------------------------------
REMARK --------------------- added by autoBUSTER -------------------------------
REMARK run at   = Thu Apr 13 10:00:09 BST 2023                                  
REMARK     in   = /dls/labxchem/data/lb32627/lb32627-1/processing/analysis/model
REMARK     user = dcn76311                                                      
REMARK     cmd  = \                                                             
REMARK            /dls_sw/apps/GPhL/BUSTER/20230217/autoBUSTER/bin/linux64/refin
REMARK            -p \                                                          
REMARK            /dls/labxchem/data/lb32627/lb32627-1/processing/analysis/model
REMARK            -m \                                                          
REMARK            /dls/labxchem/data/lb32627/lb32627-1/processing/analysis/model
REMARK            -l \                                                          
REMARK            /dls/labxchem/data/lb32627/lb32627-1/processing/analysis/model
REMARK            -autoncs -M TLSbasic -d Refine_15                             
REMARK Files used:                                                              
REMARK   PDB              = Refine_15/pdbchk.pdb                                
REMARK   MTZ              = /dls/labxchem/data/lb32627/lb32627-1/processing/anal
REMARK output written to subdirectory = Refine_15                               
REMARK best refinement for F,SIGF with R/Rfree 0.1702/0.1950                    
REMARK header records are copied from input PDB file (apart from REMARK 3!)     
REMARK --------------------- added by autoBUSTER -------------------------------
REMARK --------------------- added by autoBUSTER -------------------------------
REMARK run at   = Thu Apr 13 09:41:58 BST 2023                                  
REMARK     in   = /dls/labxchem/data/lb32627/lb32627-1/processing/analysis/model
REMARK     user = dcn76311                                                      
REMARK     cmd  = \                                                             
REMARK            /dls_sw/apps/GPhL/BUSTER/20230217/autoBUSTER/bin/linux64/refin
REMARK            -p \                                                          
REMARK            /dls/labxchem/data/lb32627/lb32627-1/processing/analysis/model
REMARK            -m \                                                          
REMARK            /dls/labxchem/data/lb32627/lb32627-1/processing/analysis/model
REMARK            -l \                                                          
REMARK            /dls/labxchem/data/lb32627/lb32627-1/processing/analysis/model
REMARK            -autoncs -M TLSbasic -d Refine_14                             
REMARK Files used:                                                              
REMARK   PDB              = Refine_14/pdbchk.pdb                                
REMARK   MTZ              = /dls/labxchem/data/lb32627/lb32627-1/processing/anal
REMARK output written to subdirectory = Refine_14                               
REMARK best refinement for F,SIGF with R/Rfree 0.1697/0.1938                    
REMARK header records are copied from input PDB file (apart from REMARK 3!)     
REMARK --------------------- added by autoBUSTER -------------------------------
REMARK --------------------- added by autoBUSTER -------------------------------
REMARK run at   = Thu Apr 13 09:20:24 BST 2023                                  
REMARK     in   = /dls/labxchem/data/lb32627/lb32627-1/processing/analysis/model
REMARK     user = dcn76311                                                      
REMARK     cmd  = \                                                             
REMARK            /dls_sw/apps/GPhL/BUSTER/20230217/autoBUSTER/bin/linux64/refin
REMARK            -p \                                                          
REMARK            /dls/labxchem/data/lb32627/lb32627-1/processing/analysis/model
REMARK            -m \                                                          
REMARK            /dls/labxchem/data/lb32627/lb32627-1/processing/analysis/model
REMARK            -l \                                                          
REMARK            /dls/labxchem/data/lb32627/lb32627-1/processing/analysis/model
REMARK            -autoncs -M TLSbasic -d Refine_13                             
REMARK Files used:                                                              
REMARK   PDB              = Refine_13/pdbchk.pdb                                
REMARK   MTZ              = /dls/labxchem/data/lb32627/lb32627-1/processing/anal
REMARK output written to subdirectory = Refine_13                               
REMARK best refinement for F,SIGF with R/Rfree 0.1698/0.1938                    
REMARK header records are copied from input PDB file (apart from REMARK 3!)     
REMARK --------------------- added by autoBUSTER -------------------------------
REMARK --------------------- added by autoBUSTER -------------------------------
REMARK run at   = Thu Apr 13 08:43:56 BST 2023                                  
REMARK     in   = /dls/labxchem/data/lb32627/lb32627-1/processing/analysis/model
REMARK     user = dcn76311                                                      
REMARK     cmd  = \                                                             
REMARK            /dls_sw/apps/GPhL/BUSTER/20230217/autoBUSTER/bin/linux64/refin
REMARK            -p \                                                          
REMARK            /dls/labxchem/data/lb32627/lb32627-1/processing/analysis/model
REMARK            -m \                                                          
REMARK            /dls/labxchem/data/lb32627/lb32627-1/processing/analysis/model
REMARK            -l \                                                          
REMARK            /dls/labxchem/data/lb32627/lb32627-1/processing/analysis/model
REMARK            -autoncs -M TLSbasic -d Refine_12                             
REMARK Files used:                                                              
REMARK   PDB              = Refine_12/pdbchk.pdb                                
REMARK   MTZ              = /dls/labxchem/data/lb32627/lb32627-1/processing/anal
REMARK output written to subdirectory = Refine_12                               
REMARK best refinement for F,SIGF with R/Rfree 0.1697/0.1946                    
REMARK header records are copied from input PDB file (apart from REMARK 3!)     
REMARK --------------------- added by autoBUSTER -------------------------------
REMARK --------------------- added by autoBUSTER -------------------------------
REMARK run at   = Wed Apr 12 14:12:55 BST 2023                                  
REMARK     in   = /dls/labxchem/data/lb32627/lb32627-1/processing/analysis/model
REMARK     user = dcn76311                                                      
REMARK     cmd  = \                                                             
REMARK            /dls_sw/apps/GPhL/BUSTER/20230217/autoBUSTER/bin/linux64/refin
REMARK            -p \                                                          
REMARK            /dls/labxchem/data/lb32627/lb32627-1/processing/analysis/model
REMARK            -m \                                                          
REMARK            /dls/labxchem/data/lb32627/lb32627-1/processing/analysis/model
REMARK            -l \                                                          
REMARK            /dls/labxchem/data/lb32627/lb32627-1/processing/analysis/model
REMARK            -autoncs -M TLSbasic -d Refine_11                             
REMARK Files used:                                                              
REMARK   PDB              = Refine_11/pdbchk.pdb                                
REMARK   MTZ              = /dls/labxchem/data/lb32627/lb32627-1/processing/anal
REMARK output written to subdirectory = Refine_11                               
REMARK best refinement for F,SIGF with R/Rfree 0.1713/0.1954                    
REMARK header records are copied from input PDB file (apart from REMARK 3!)     
REMARK --------------------- added by autoBUSTER -------------------------------
REMARK --------------------- added by autoBUSTER -------------------------------
REMARK run at   = Wed Apr 12 13:29:23 BST 2023                                  
REMARK     in   = /dls/labxchem/data/lb32627/lb32627-1/processing/analysis/model
REMARK     user = dcn76311                                                      
REMARK     cmd  = \                                                             
REMARK            /dls_sw/apps/GPhL/BUSTER/20230217/autoBUSTER/bin/linux64/refin
REMARK            -p \                                                          
REMARK            /dls/labxchem/data/lb32627/lb32627-1/processing/analysis/model
REMARK            -m \                                                          
REMARK            /dls/labxchem/data/lb32627/lb32627-1/processing/analysis/model
REMARK            -l \                                                          
REMARK            /dls/labxchem/data/lb32627/lb32627-1/processing/analysis/model
REMARK            -autoncs -M TLSbasic -d Refine_10                             
REMARK Files used:                                                              
REMARK   PDB              = Refine_10/pdbchk.pdb                                
REMARK   MTZ              = /dls/labxchem/data/lb32627/lb32627-1/processing/anal
REMARK output written to subdirectory = Refine_10                               
REMARK best refinement for F,SIGF with R/Rfree 0.1714/0.1953                    
REMARK header records are copied from input PDB file (apart from REMARK 3!)     
REMARK --------------------- added by autoBUSTER -------------------------------
REMARK --------------------- added by autoBUSTER -------------------------------
REMARK run at   = Wed Apr 12 12:58:33 BST 2023                                  
REMARK     in   = /dls/labxchem/data/lb32627/lb32627-1/processing/analysis/model
REMARK     user = dcn76311                                                      
REMARK     cmd  = \                                                             
REMARK            /dls_sw/apps/GPhL/BUSTER/20230217/autoBUSTER/bin/linux64/refin
REMARK            -p \                                                          
REMARK            /dls/labxchem/data/lb32627/lb32627-1/processing/analysis/model
REMARK            -m \                                                          
REMARK            /dls/labxchem/data/lb32627/lb32627-1/processing/analysis/model
REMARK            -l \                                                          
REMARK            /dls/labxchem/data/lb32627/lb32627-1/processing/analysis/model
REMARK            -autoncs -M TLSbasic -d Refine_9                              
REMARK Files used:                                                              
REMARK   PDB              = Refine_9/pdbchk.pdb                                 
REMARK   MTZ              = /dls/labxchem/data/lb32627/lb32627-1/processing/anal
REMARK output written to subdirectory = Refine_9                                
REMARK best refinement for F,SIGF with R/Rfree 0.1731/0.1963                    
REMARK header records are copied from input PDB file (apart from REMARK 3!)     
REMARK --------------------- added by autoBUSTER -------------------------------
REMARK --------------------- added by autoBUSTER -------------------------------
REMARK run at   = Wed Apr 12 11:31:29 BST 2023                                  
REMARK     in   = /dls/labxchem/data/lb32627/lb32627-1/processing/analysis/model
REMARK     user = dcn76311                                                      
REMARK     cmd  = \                                                             
REMARK            /dls_sw/apps/GPhL/BUSTER/20230217/autoBUSTER/bin/linux64/refin
REMARK            -p \                                                          
REMARK            /dls/labxchem/data/lb32627/lb32627-1/processing/analysis/model
REMARK            -m \                                                          
REMARK            /dls/labxchem/data/lb32627/lb32627-1/processing/analysis/model
REMARK            -l \                                                          
REMARK            /dls/labxchem/data/lb32627/lb32627-1/processing/analysis/model
REMARK            -autoncs -M TLSbasic -d Refine_8                              
REMARK Files used:                                                              
REMARK   PDB              = Refine_8/pdbchk.pdb                                 
REMARK   MTZ              = /dls/labxchem/data/lb32627/lb32627-1/processing/anal
REMARK output written to subdirectory = Refine_8                                
REMARK best refinement for F,SIGF with R/Rfree 0.1737/0.1971                    
REMARK header records are copied from input PDB file (apart from REMARK 3!)     
REMARK --------------------- added by autoBUSTER -------------------------------
REMARK --------------------- added by autoBUSTER -------------------------------
REMARK run at   = Wed Apr 12 11:00:56 BST 2023                                  
REMARK     in   = /dls/labxchem/data/lb32627/lb32627-1/processing/analysis/model
REMARK     user = dcn76311                                                      
REMARK     cmd  = \                                                             
REMARK            /dls_sw/apps/GPhL/BUSTER/20230217/autoBUSTER/bin/linux64/refin
REMARK            -p \                                                          
REMARK            /dls/labxchem/data/lb32627/lb32627-1/processing/analysis/model
REMARK            -m \                                                          
REMARK            /dls/labxchem/data/lb32627/lb32627-1/processing/analysis/model
REMARK            -l \                                                          
REMARK            /dls/labxchem/data/lb32627/lb32627-1/processing/analysis/model
REMARK            -autoncs -M TLSbasic -d Refine_7                              
REMARK Files used:                                                              
REMARK   PDB              = Refine_7/pdbchk.pdb                                 
REMARK   MTZ              = /dls/labxchem/data/lb32627/lb32627-1/processing/anal
REMARK output written to subdirectory = Refine_7                                
REMARK best refinement for F,SIGF with R/Rfree 0.1738/0.1970                    
REMARK header records are copied from input PDB file (apart from REMARK 3!)     
REMARK --------------------- added by autoBUSTER -------------------------------
REMARK --------------------- added by autoBUSTER -------------------------------
REMARK run at   = Tue Apr 11 10:19:24 BST 2023                                  
REMARK     in   = /dls/labxchem/data/lb32627/lb32627-1/processing/analysis/model
REMARK     user = dcn76311                                                      
REMARK     cmd  = \                                                             
REMARK            /dls_sw/apps/GPhL/BUSTER/20230217/autoBUSTER/bin/linux64/refin
REMARK            -p \                                                          
REMARK            /dls/labxchem/data/lb32627/lb32627-1/processing/analysis/model
REMARK            -m \                                                          
REMARK            /dls/labxchem/data/lb32627/lb32627-1/processing/analysis/model
REMARK            -l \                                                          
REMARK            /dls/labxchem/data/lb32627/lb32627-1/processing/analysis/model
REMARK            -autoncs -M TLSbasic -d Refine_6                              
REMARK Files used:                                                              
REMARK   PDB              = Refine_6/pdbchk.pdb                                 
REMARK   MTZ              = /dls/labxchem/data/lb32627/lb32627-1/processing/anal
REMARK output written to subdirectory = Refine_6                                
REMARK best refinement for F,SIGF with R/Rfree 0.1748/0.1982                    
REMARK header records are copied from input PDB file (apart from REMARK 3!)     
REMARK --------------------- added by autoBUSTER -------------------------------
REMARK --------------------- added by autoBUSTER -------------------------------
REMARK run at   = Wed Apr  5 11:07:00 BST 2023                                  
REMARK     in   = /dls/labxchem/data/lb32627/lb32627-1/processing/analysis/model
REMARK     user = dcn76311                                                      
REMARK     cmd  = \                                                             
REMARK            /dls_sw/apps/GPhL/BUSTER/20230217/autoBUSTER/bin/linux64/refin
REMARK            -p \                                                          
REMARK            /dls/labxchem/data/lb32627/lb32627-1/processing/analysis/model
REMARK            -m \                                                          
REMARK            /dls/labxchem/data/lb32627/lb32627-1/processing/analysis/model
REMARK            -l \                                                          
REMARK            /dls/labxchem/data/lb32627/lb32627-1/processing/analysis/model
REMARK            -autoncs -M TLSbasic -d Refine_5                              
REMARK Files used:                                                              
REMARK   PDB              = Refine_5/pdbchk.pdb                                 
REMARK   MTZ              = /dls/labxchem/data/lb32627/lb32627-1/processing/anal
REMARK output written to subdirectory = Refine_5                                
REMARK best refinement for F,SIGF with R/Rfree 0.1751/0.1981                    
REMARK header records are copied from input PDB file (apart from REMARK 3!)     
REMARK --------------------- added by autoBUSTER -------------------------------
REMARK --------------------- added by autoBUSTER -------------------------------
REMARK run at   = Wed Apr  5 10:45:27 BST 2023                                  
REMARK     in   = /dls/labxchem/data/lb32627/lb32627-1/processing/analysis/model
REMARK     user = dcn76311                                                      
REMARK     cmd  = \                                                             
REMARK            /dls_sw/apps/GPhL/BUSTER/20230217/autoBUSTER/bin/linux64/refin
REMARK            -p \                                                          
REMARK            /dls/labxchem/data/lb32627/lb32627-1/processing/analysis/model
REMARK            -m \                                                          
REMARK            /dls/labxchem/data/lb32627/lb32627-1/processing/analysis/model
REMARK            -l \                                                          
REMARK            /dls/labxchem/data/lb32627/lb32627-1/processing/analysis/model
REMARK            -autoncs -M TLSbasic -d Refine_4                              
REMARK Files used:                                                              
REMARK   PDB              = Refine_4/pdbchk.pdb                                 
REMARK   MTZ              = /dls/labxchem/data/lb32627/lb32627-1/processing/anal
REMARK output written to subdirectory = Refine_4                                
REMARK best refinement for F,SIGF with R/Rfree 0.1751/0.1982                    
REMARK header records are copied from input PDB file (apart from REMARK 3!)     
REMARK --------------------- added by autoBUSTER -------------------------------
REMARK --------------------- added by autoBUSTER -------------------------------
REMARK run at   = Tue Apr  4 09:29:39 BST 2023                                  
REMARK     in   = /dls/labxchem/data/lb32627/lb32627-1/processing/analysis/model
REMARK     user = dcn76311                                                      
REMARK     cmd  = \                                                             
REMARK            /dls_sw/apps/GPhL/BUSTER/20230217/autoBUSTER/bin/linux64/refin
REMARK            -p \                                                          
REMARK            /dls/labxchem/data/lb32627/lb32627-1/processing/analysis/model
REMARK            -m \                                                          
REMARK            /dls/labxchem/data/lb32627/lb32627-1/processing/analysis/model
REMARK            -l \                                                          
REMARK            /dls/labxchem/data/lb32627/lb32627-1/processing/analysis/model
REMARK            -autoncs -M TLSbasic -d Refine_3                              
REMARK Files used:                                                              
REMARK   PDB              = Refine_3/pdbchk.pdb                                 
REMARK   MTZ              = /dls/labxchem/data/lb32627/lb32627-1/processing/anal
REMARK output written to subdirectory = Refine_3                                
REMARK best refinement for F,SIGF with R/Rfree 0.1758/0.2020                    
REMARK header records are copied from input PDB file (apart from REMARK 3!)     
REMARK --------------------- added by autoBUSTER -------------------------------
REMARK --------------------- added by autoBUSTER -------------------------------
REMARK run at   = Tue Mar  7 15:32:52 GMT 2023                                  
REMARK     in   = /dls/labxchem/data/lb32627/lb32627-1/processing/analysis/model
REMARK     user = dcn76311                                                      
REMARK     cmd  = \                                                             
REMARK            /dls_sw/apps/GPhL/BUSTER/20221121/autoBUSTER/bin/linux64/refin
REMARK            -p \                                                          
REMARK            /dls/labxchem/data/lb32627/lb32627-1/processing/analysis/model
REMARK            -m \                                                          
REMARK            /dls/labxchem/data/lb32627/lb32627-1/processing/analysis/model
REMARK            -l \                                                          
REMARK            /dls/labxchem/data/lb32627/lb32627-1/processing/analysis/model
REMARK            -autoncs -M TLSbasic -d Refine_2                              
REMARK Files used:                                                              
REMARK   PDB              = Refine_2/pdbchk.pdb                                 
REMARK   MTZ              = /dls/labxchem/data/lb32627/lb32627-1/processing/anal
REMARK output written to subdirectory = Refine_2                                
REMARK best refinement for F,SIGF with R/Rfree 0.1776/0.2058                    
REMARK header records are copied from input PDB file (apart from REMARK 3!)     
REMARK --------------------- added by autoBUSTER -------------------------------
REMARK --------------------- added by autoBUSTER -------------------------------
REMARK run at   = Fri Mar  3 15:13:29 GMT 2023                                  
REMARK     in   = /dls/labxchem/data/lb32627/lb32627-1/processing/analysis/model
REMARK     user = dcn76311                                                      
REMARK     cmd  = \                                                             
REMARK            /dls_sw/apps/GPhL/BUSTER/20221121/autoBUSTER/bin/linux64/refin
REMARK            -p \                                                          
REMARK            /dls/labxchem/data/lb32627/lb32627-1/processing/analysis/model
REMARK            -m \                                                          
REMARK            /dls/labxchem/data/lb32627/lb32627-1/processing/analysis/model
REMARK            -l \                                                          
REMARK            /dls/labxchem/data/lb32627/lb32627-1/processing/analysis/model
REMARK            -autoncs -M TLSbasic -d Refine_1                              
REMARK Files used:                                                              
REMARK   PDB              = Refine_1/pdbchk.pdb                                 
REMARK   MTZ              = /dls/labxchem/data/lb32627/lb32627-1/processing/anal
REMARK output written to subdirectory = Refine_1                                
REMARK best refinement for F,SIGF with R/Rfree 0.1777/0.2057                    
REMARK header records are copied from input PDB file (apart from REMARK 3!)     
REMARK --------------------- added by autoBUSTER -------------------------------
REMARK   2                                                            
REMARK   2 RESOLUTION.    1.20 ANGSTROMS.
REMARK   3
REMARK   3 REFINEMENT.
REMARK   3   PROGRAM     : BUSTER 2.10.4 (17-FEB-2023)
REMARK   3   AUTHORS     : BRICOGNE,BLANC,BRANDL,FLENSBURG,KELLER,
REMARK   3               : PACIOREK,ROVERSI,SHARFF,SMART,VONRHEIN,WOMACK;
REMARK   3               : MATTHEWS,TEN EYCK,TRONRUD
REMARK   3
REMARK   3  DATA USED IN REFINEMENT.
REMARK   3   RESOLUTION RANGE HIGH (ANGSTROMS) : 1.199
REMARK   3   RESOLUTION RANGE LOW  (ANGSTROMS) : 17.47
REMARK   3   DATA CUTOFF            (SIGMA(F)) : 0.000
REMARK   3   COMPLETENESS FOR RANGE        (%) : 81.6
REMARK   3   NUMBER OF REFLECTIONS             : 79529
REMARK   3
REMARK   3  FIT TO DATA USED IN REFINEMENT.
REMARK   3   CROSS-VALIDATION METHOD          : THROUGHOUT
REMARK   3   FREE R VALUE TEST SET SELECTION  : RANDOM
REMARK   3   R VALUE     (WORKING + TEST SET) : 0.1714
REMARK   3   R VALUE            (WORKING SET) : 0.1702
REMARK   3   FREE R VALUE                     : 0.1949
REMARK   3   FREE R VALUE TEST SET SIZE   (%) : 4.970
REMARK   3   FREE R VALUE TEST SET COUNT      : 3952
REMARK   3   ESTIMATED ERROR OF FREE R VALUE  : NULL
REMARK   3
REMARK   3  FIT IN THE HIGHEST RESOLUTION BIN.
REMARK   3   TOTAL NUMBER OF BINS USED           : 51
REMARK   3   BIN RESOLUTION RANGE HIGH       (A) : 1.20
REMARK   3   BIN RESOLUTION RANGE LOW        (A) : 1.23
REMARK   3   BIN COMPLETENESS (WORKING+TEST) (%) : 19.51
REMARK   3   REFLECTIONS IN BIN   (WORKING+TEST) : 1591
REMARK   3   BIN R VALUE          (WORKING+TEST) : 0.2335
REMARK   3   REFLECTIONS IN BIN    (WORKING SET) : 1496
REMARK   3   BIN R VALUE           (WORKING SET) : 0.2330
REMARK   3   BIN FREE R VALUE                    : 0.2420
REMARK   3   BIN FREE R VALUE TEST SET SIZE  (%) : 5.97
REMARK   3   BIN FREE R VALUE TEST SET COUNT     : 95
REMARK   3   ESTIMATED ERROR OF BIN FREE R VALUE : NULL
REMARK   3
REMARK   3  NUMBER OF NON-HYDROGEN ATOMS USED IN REFINEMENT.
REMARK   3   PROTEIN ATOMS            : 2519
REMARK   3   NUCLEIC ACID ATOMS       : 0
REMARK   3   HETEROGEN ATOMS          : 18
REMARK   3   SOLVENT ATOMS            : 453
REMARK   3
REMARK   3  B VALUES.
REMARK   3   FROM WILSON PLOT           (A**2) : 11.10
REMARK   3   MEAN B VALUE      (OVERALL, A**2) : 16.25
REMARK   3   OVERALL ANISOTROPIC B VALUE.
REMARK   3    B11 (A**2) : -0.50430
REMARK   3    B22 (A**2) : -0.50430
REMARK   3    B33 (A**2) : 1.00860
REMARK   3    B12 (A**2) : 0.00000
REMARK   3    B13 (A**2) : 0.00000
REMARK   3    B23 (A**2) : 0.00000
REMARK   3
REMARK   3  ESTIMATED COORDINATE ERROR.
REMARK   3   ESD FROM LUZZATI PLOT                    (A) : 0.14
REMARK   3   DPI (BLOW EQ-10) BASED ON R VALUE        (A) : 0.050
REMARK   3   DPI (BLOW EQ-9) BASED ON FREE R VALUE    (A) : 0.052
REMARK   3   DPI (CRUICKSHANK) BASED ON R VALUE       (A) : 0.047
REMARK   3   DPI (CRUICKSHANK) BASED ON FREE R VALUE  (A) : 0.049
REMARK   3
REMARK   3   REFERENCES: BLOW, D. (2002) ACTA CRYST D58, 792-797
REMARK   3               CRUICKSHANK, D.W.J. (1999) ACTA CRYST D55, 583-601
REMARK   3
REMARK   3  CORRELATION COEFFICIENTS.
REMARK   3   CORRELATION COEFFICIENT FO-FC      : 0.964
REMARK   3   CORRELATION COEFFICIENT FO-FC FREE : 0.955
REMARK   3
REMARK   3  X-RAY WEIGHT : 5.32
REMARK   3
REMARK   3  GEOMETRY FUNCTION.                                                  
REMARK   3   RESTRAINT LIBRARIES.                                               
REMARK   3    NUMBER OF LIBRARIES USED :   8                                    
REMARK   3    LIBRARY  1 : protgeo_eh99.dat (V1.6.4.20) 20220523  STANDARD      
REMARK   3                 AMINO ACID DICTIONARY. BONDS AND ANGLES FROM         
REMARK   3                 ENGH AND HUBER EH99. OTHER VALUES BASED ON           
REMARK   3                 PREVIOUS TNT OR TAKEN FROM CCP4. INCLUDES            
REMARK   3                 HYDROGEN ATOMS.                                      
REMARK   3    LIBRARY  2 : exoticaa.dat (V1.3.4.16) 20220523  COLLECTION        
REMARK   3                 OF NON-STANDARD AMINO ACIDS, MAINLY EH91             
REMARK   3                 WITHOUT IDEAL DISTANCE INFO                          
REMARK   3    LIBRARY  3 : nuclgeo.dat (V1.13.4.9) 20221011                     
REMARK   3    LIBRARY  4 : bcorrel.dat (V1.15.10.2) 20190616                    
REMARK   3    LIBRARY  5 : contact.dat (V1.15.12.10) 20191121                   
REMARK   3    LIBRARY  6 : idealdist_contact.dat (V1.3.4.13) 20220125           
REMARK   3                 IDEAL-DISTANCE CONTACT TERM DATA AS USED IN          
REMARK   3                 PROLSQ. VALUES USED HERE ARE BASED ON DATA           
REMARK   3                 HARVESTING OF PDB AS OF 20190109.                    
REMARK   3    LIBRARY  7 : restraints for LIG (unknown) from cif                
REMARK   3                 dictionary ASAP-0008338-001.cif; generated by        
REMARK   3                 GRADE 1.2.21 (Feb 03 2022) from SMILES               
REMARK   3                 O=C(O)[C@H](CC1CC1)Nc1ncnc2[nH]ccc12 using           
REMARK   3                 MOGUL 1.8.5(274361), CSD as541be, with quantum       
REMARK   3                 mechanics RM1                                        
REMARK   3    LIBRARY  8 : assume.dat (V1.9.4.3) 20221011                       
REMARK   3                                                                      
REMARK   3   NUMBER OF GEOMETRIC FUNCTION TERMS DEFINED : 15                    
REMARK   3   TERM                          COUNT    WEIGHT   FUNCTION.          
REMARK   3    BOND LENGTHS              :   2710 ;   2.00 ;  HARMONIC           
REMARK   3    BOND ANGLES               :   3712 ;   2.00 ;  HARMONIC           
REMARK   3    TORSION ANGLES            :    932 ;   2.00 ;  SINUSOIDAL         
REMARK   3    TRIGONAL CARBON PLANES    :   NULL ;   NULL ;  NULL               
REMARK   3    GENERAL PLANES            :    490 ;   5.00 ;  HARMONIC           
REMARK   3    ISOTROPIC THERMAL FACTORS :   2710 ;  10.00 ;  HARMONIC           
REMARK   3    BAD NON-BONDED CONTACTS   :   NULL ;   NULL ;  NULL               
REMARK   3    IMPROPER TORSIONS         :   NULL ;   NULL ;  NULL               
REMARK   3    PSEUDOROTATION ANGLES     :   NULL ;   NULL ;  NULL               
REMARK   3    CHIRAL IMPROPER TORSION   :    348 ;   5.00 ;  SEMIHARMONIC       
REMARK   3    SUM OF OCCUPANCIES        :   NULL ;   NULL ;  NULL               
REMARK   3    UTILITY DISTANCES         :   NULL ;   NULL ;  NULL               
REMARK   3    UTILITY ANGLES            :   NULL ;   NULL ;  NULL               
REMARK   3    UTILITY TORSION           :   NULL ;   NULL ;  NULL               
REMARK   3    IDEAL-DIST CONTACT TERM   :   2822 ;   4.00 ;  SEMIHARMONIC       
REMARK   3                                                                      
REMARK   3   RMS DEVIATIONS FROM IDEAL VALUES.                                  
REMARK   3   BOND LENGTHS                       (A) : 0.013                     
REMARK   3   BOND ANGLES                  (DEGREES) : 1.20                      
REMARK   3   PEPTIDE OMEGA TORSION ANGLES (DEGREES) : 5.01                      
REMARK   3   OTHER TORSION ANGLES         (DEGREES) : 13.98                     
REMARK   3                                                                      
REMARK   3   SIMILARITY.                                                        
REMARK   3    NCS.                                                              
REMARK   3     NCS METHOD: RESTRAINT LSSR (-AUTONCS)                            
REMARK   3    TARGET RESTRAINTS.                                                
REMARK   3     TARGET REPRESENTATION : NONE                                     
REMARK   3     TARGET STRUCTURE : NULL                                          
REMARK   3                                                                      
REMARK   3  TLS DETAILS.                                                        
REMARK   3   NUMBER OF TLS GROUPS  :            2                               
REMARK   3                                                                      
REMARK   3   TLS GROUP :            1                                           
REMARK   3    SET : { A|* }                                                     
REMARK   3    ORIGIN FOR THE GROUP (A):    4.1895   21.2103   -0.4879           
REMARK   3    T TENSOR                                                          
REMARK   3     T11:   -0.0101 T22:   -0.0131                                    
REMARK   3     T33:   -0.0002 T12:    0.0004                                    
REMARK   3     T13:   -0.0224 T23:    0.0055                                    
REMARK   3    L TENSOR                                                          
REMARK   3     L11:    0.4801 L22:    0.9575                                    
REMARK   3     L33:    0.0599 L12:   -0.1472                                    
REMARK   3     L13:   -0.0133 L23:   -0.0740                                    
REMARK   3    S TENSOR                                                          
REMARK   3     S11:   -0.0024 S12:   -0.0088 S13:   -0.0185                     
REMARK   3     S21:    0.0246 S22:   -0.0021 S23:   -0.0538                     
REMARK   3     S31:   -0.0000 S32:   -0.0096 S33:    0.0046                     
REMARK   3                                                                      
REMARK   3   TLS GROUP :            2                                           
REMARK   3    SET : { B|* }                                                     
REMARK   3    ORIGIN FOR THE GROUP (A):   22.4449   43.2359   -7.7072           
REMARK   3    T TENSOR                                                          
REMARK   3     T11:   -0.0285 T22:   -0.0174                                    
REMARK   3     T33:    0.0065 T12:    0.0089                                    
REMARK   3     T13:   -0.0061 T23:   -0.0035                                    
REMARK   3    L TENSOR                                                          
REMARK   3     L11:    1.0337 L22:    1.1775                                    
REMARK   3     L33:    0.1560 L12:   -0.2597                                    
REMARK   3     L13:   -0.2335 L23:    0.1071                                    
REMARK   3    S TENSOR                                                          
REMARK   3     S11:    0.0685 S12:    0.0029 S13:   -0.0441                     
REMARK   3     S21:   -0.0085 S22:   -0.0648 S23:   -0.1088                     
REMARK   3     S31:   -0.0372 S32:   -0.0150 S33:   -0.0036                     
REMARK   3                                                                      
REMARK   3  REFINEMENT NOTES.                                                   
REMARK   3   NUMBER OF REFINEMENT NOTES :   1                                   
REMARK   3   NOTE   1 : IDEAL-DIST CONTACT TERM CONTACT SETUP. ALL ATOMS        
REMARK   3               HAVE CCP4 ATOM TYPE FROM LIBRARY                       
REMARK   3
REMARK   3  OTHER REFINEMENT REMARKS: NULL
REMARK   3
REMARK 290                                                            
REMARK 290 CRYSTALLOGRAPHIC SYMMETRY                                  
REMARK 290 SYMMETRY OPERATORS FOR SPACE GROUP: P 43                   
REMARK 290                                                            
REMARK 290      SYMOP   SYMMETRY                                      
REMARK 290     NNNMMM   OPERATOR                                      
REMARK 290       1555   X,Y,Z                                         
REMARK 290       2555   -X,-Y,1/2+Z                                   
REMARK 290       3555   -Y,X,3/4+Z                                    
REMARK 290       4555   Y,-X,1/4+Z                                    
REMARK 290                                                            
REMARK 290     WHERE NNN -> OPERATOR NUMBER                           
REMARK 290           MMM -> TRANSLATION VECTOR                        
REMARK 290                                                            
REMARK 290 CRYSTALLOGRAPHIC SYMMETRY TRANSFORMATIONS                  
REMARK 290 THE FOLLOWING TRANSFORMATIONS OPERATE ON THE ATOM/HETATM   
REMARK 290 RECORDS IN THIS ENTRY TO PRODUCE CRYSTALLOGRAPHICALLY      
REMARK 290 RELATED MOLECULES.                                         
REMARK 290   SMTRY1   1  1.000000  0.000000  0.000000        0.00000
REMARK 290   SMTRY2   1  0.000000  1.000000  0.000000        0.00000
REMARK 290   SMTRY3   1  0.000000  0.000000  1.000000        0.00000
REMARK 290   SMTRY1   2 -1.000000  0.000000  0.000000        0.00000
REMARK 290   SMTRY2   2  0.000000 -1.000000  0.000000        0.00000
REMARK 290   SMTRY3   2  0.000000  0.000000  1.000000       19.78600
REMARK 290   SMTRY1   3  0.000000 -1.000000  0.000000        0.00000
REMARK 290   SMTRY2   3  1.000000  0.000000  0.000000        0.00000
REMARK 290   SMTRY3   3  0.000000  0.000000  1.000000       29.67900
REMARK 290   SMTRY1   4  0.000000  1.000000  0.000000        0.00000
REMARK 290   SMTRY2   4 -1.000000  0.000000  0.000000        0.00000
REMARK 290   SMTRY3   4  0.000000  0.000000  1.000000        9.89300
REMARK 290                                                            
REMARK 290 REMARK: NULL                                               
REMARK 300
REMARK 300 BIOMOLECULE: 1, 2
REMARK 300 SEE REMARK 350 FOR THE AUTHOR PROVIDED AND/OR PROGRAM
REMARK 300 GENERATED ASSEMBLY INFORMATION FOR THE STRUCTURE IN
REMARK 300 THIS ENTRY. THE REMARK MAY ALSO  PROVIDE INFORMATION ON
REMARK 300 BURIED SURFACE AREA.
REMARK 350
REMARK 350 COORDINATES FOR A COMPLETE MULTIMER REPRESENTING THE KNOWN
REMARK 350 BIOLOGICALLY SIGNIFICANT OLIGOMERIZATION STATE OF THE
REMARK 350 MOLECULE CAN BE GENERATED BY APPLYING BIOMT TRANSFORMATIONS
REMARK 350 GIVEN BELOW. BOTH NON-CRYSTALLOGRAPHIC AND
REMARK 350 CRYSTALLOGRAPHIC OPERATIONS ARE GIVEN.
REMARK 350
REMARK 350 BIOMOLECULE: 1
REMARK 350 SOFTWARE DETERMINED QUATERNARY STRUCTURE: MONOMERIC
REMARK 350 SOFTWARE USED: PISA
REMARK 350 SURFACE AREA OF THE MONOMER: 7875 ANGSTROM**2
REMARK 350 FREE ENERGY OF FOLDING: -154.2 KCAL/MOL
REMARK 350 APPLY THE FOLLOWING TO CHAINS: A,W
REMARK 350   BIOMT1   1  1.000000  0.000000  0.000000        0.00000
REMARK 350   BIOMT2   1  0.000000  1.000000  0.000000        0.00000
REMARK 350   BIOMT3   1  0.000000  0.000000  1.000000        0.00000
REMARK 350
REMARK 350 BIOMOLECULE: 2
REMARK 350 SOFTWARE DETERMINED QUATERNARY STRUCTURE: MONOMERIC
REMARK 350 SOFTWARE USED: PISA
REMARK 350 SURFACE AREA OF THE MONOMER: 8081 ANGSTROM**2
REMARK 350 FREE ENERGY OF FOLDING: -156.5 KCAL/MOL
REMARK 350 APPLY THE FOLLOWING TO CHAINS: B,W
REMARK 350   BIOMT1   1  1.000000  0.000000  0.000000        0.00000
REMARK 350   BIOMT2   1  0.000000  1.000000  0.000000        0.00000
REMARK 350   BIOMT3   1  0.000000  0.000000  1.000000        0.00000
CRYST1   89.061   89.061   39.572  90.00  90.00  90.00 P 43                     


$$$$
SARS2_Mac1A-A1219
  PyMOL3.0          3D                             0

 18 20  0  0  0  0  0  0  0  0999 V2000
   -0.2670   11.7840   -5.3880 N   0  0  0  0  0  0  0  0  0  0  0  0
    0.6120   12.2820   -3.1200 C   0  0  0  0  0  0  0  0  0  0  0  0
    1.1560   12.9360   -2.2390 O   0  0  0  0  0  0  0  0  0  0  0  0
    0.4190   12.7640   -4.5550 C   0  0  0  0  0  0  0  0  0  0  0  0
    1.1500   12.0130   -7.2070 N   0  0  0  0  0  0  0  0  0  0  0  0
    0.1090   11.1150   -2.9090 O   0  0  0  0  0  0  0  0  0  0  0  0
   -0.3250   14.1060   -4.5930 C   0  0  0  0  0  0  0  0  0  0  0  0
    1.0540   10.5270   -9.0990 N   0  0  0  0  0  0  0  0  0  0  0  0
   -1.7780   14.0460   -4.1210 C   0  0  0  0  0  0  0  0  0  0  0  0
   -0.6150    8.7840   -8.9310 N   0  0  0  0  0  0  0  0  0  0  0  0
   -2.3890   15.2610   -3.4620 C   0  0  0  0  0  0  0  0  0  0  0  0
   -2.0840   14.0400   -2.6480 C   0  0  0  0  0  0  0  0  0  0  0  0
    0.1570   11.3370   -6.5860 C   0  0  0  0  0  0  0  0  0  0  0  0
    1.5420   11.5590   -8.3990 C   0  0  0  0  0  0  0  0  0  0  0  0
    0.0670    9.8730   -8.4620 C   0  0  0  0  0  0  0  0  0  0  0  0
   -1.5230    8.4020   -7.9680 C   0  0  0  0  0  0  0  0  0  0  0  0
   -1.4400    9.2230   -6.8900 C   0  0  0  0  0  0  0  0  0  0  0  0
   -0.4300   10.1870   -7.1900 C   0  0  0  0  0  0  0  0  0  0  0  0
  1 13  1  0  0  0  0
  2  4  1  0  0  0  0
  2  6  4  0  0  0  0
  2  3  4  0  0  0  0
  1  4  1  0  0  0  0
  4  7  1  0  0  0  0
  7  9  1  0  0  0  0
  8 14  4  0  0  0  0
  9 11  1  0  0  0  0
  9 12  1  0  0  0  0
 10 15  4  0  0  0  0
 11 12  1  0  0  0  0
  5 13  4  0  0  0  0
 13 18  4  0  0  0  0
  5 14  4  0  0  0  0
  8 15  4  0  0  0  0
 10 16  4  0  0  0  0
 16 17  4  0  0  0  0
 15 18  4  0  0  0  0
 17 18  4  0  0  0  0
M  END
>  <pdb_header>
HEADER    ----                                    18-MAY-20                     
TITLE     ---                                                                   
EXPDTA    X-RAY DIFFRACTION                                                     
REMARK --------------------- added by autoBUSTER ---------------------------------START
REMARK run at   = Wed Apr 19 14:11:01 BST 2023
REMARK     in   = /dls/labxchem/data/lb32627/lb32627-1/processing/analysis/model_building/SARS2_Mac1A-A1219
REMARK     user = dcn76311
REMARK     cmd  = \
REMARK            /dls_sw/apps/GPhL/BUSTER/20230217/autoBUSTER/bin/linux64/refine \
REMARK            -p \
REMARK            /dls/labxchem/data/lb32627/lb32627-1/processing/analysis/model_building/SARS2_Mac1A-A1219/cootOut/Refi
REMARK            -m \
REMARK            /dls/labxchem/data/lb32627/lb32627-1/processing/analysis/model_building/SARS2_Mac1A-A1219/SARS2_Mac1A-
REMARK            -l \
REMARK            /dls/labxchem/data/lb32627/lb32627-1/processing/analysis/model_building/SARS2_Mac1A-A1219/ASAP-0008347
REMARK            -autoncs -M TLSbasic -d Refine_17
REMARK Files used:
REMARK   PDB              = Refine_17/pdbchk.pdb
REMARK   MTZ              = /dls/labxchem/data/lb32627/lb32627-1/processing/analysis/model_building/SARS2_Mac1A-A1219/SA
REMARK output written to subdirectory = Refine_17
REMARK best refinement for F,SIGF with R/Rfree 0.1796/0.2120
REMARK header records are copied from input PDB file (apart from REMARK 3!)
REMARK --------------------- added by autoBUSTER -----------------------------------END
REMARK --------------------- added by autoBUSTER -------------------------------
REMARK run at   = Thu Apr 13 11:38:58 BST 2023                                  
REMARK     in   = /dls/labxchem/data/lb32627/lb32627-1/processing/analysis/model
REMARK     user = dcn76311                                                      
REMARK     cmd  = \                                                             
REMARK            /dls_sw/apps/GPhL/BUSTER/20230217/autoBUSTER/bin/linux64/refin
REMARK            -p \                                                          
REMARK            /dls/labxchem/data/lb32627/lb32627-1/processing/analysis/model
REMARK            -m \                                                          
REMARK            /dls/labxchem/data/lb32627/lb32627-1/processing/analysis/model
REMARK            -l \                                                          
REMARK            /dls/labxchem/data/lb32627/lb32627-1/processing/analysis/model
REMARK            -autoncs -M TLSbasic -d Refine_16                             
REMARK Files used:                                                              
REMARK   PDB              = Refine_16/pdbchk.pdb                                
REMARK   MTZ              = /dls/labxchem/data/lb32627/lb32627-1/processing/anal
REMARK output written to subdirectory = Refine_16                               
REMARK best refinement for F,SIGF with R/Rfree 0.1792/0.2114                    
REMARK header records are copied from input PDB file (apart from REMARK 3!)     
REMARK --------------------- added by autoBUSTER -------------------------------
REMARK --------------------- added by autoBUSTER -------------------------------
REMARK run at   = Thu Apr 13 11:24:32 BST 2023                                  
REMARK     in   = /dls/labxchem/data/lb32627/lb32627-1/processing/analysis/model
REMARK     user = dcn76311                                                      
REMARK     cmd  = \                                                             
REMARK            /dls_sw/apps/GPhL/BUSTER/20230217/autoBUSTER/bin/linux64/refin
REMARK            -p \                                                          
REMARK            /dls/labxchem/data/lb32627/lb32627-1/processing/analysis/model
REMARK            -m \                                                          
REMARK            /dls/labxchem/data/lb32627/lb32627-1/processing/analysis/model
REMARK            -l \                                                          
REMARK            /dls/labxchem/data/lb32627/lb32627-1/processing/analysis/model
REMARK            -autoncs -M TLSbasic -d Refine_15                             
REMARK Files used:                                                              
REMARK   PDB              = Refine_15/pdbchk.pdb                                
REMARK   MTZ              = /dls/labxchem/data/lb32627/lb32627-1/processing/anal
REMARK output written to subdirectory = Refine_15                               
REMARK best refinement for F,SIGF with R/Rfree 0.1792/0.2120                    
REMARK header records are copied from input PDB file (apart from REMARK 3!)     
REMARK --------------------- added by autoBUSTER -------------------------------
REMARK --------------------- added by autoBUSTER -------------------------------
REMARK run at   = Thu Apr 13 11:04:22 BST 2023                                  
REMARK     in   = /dls/labxchem/data/lb32627/lb32627-1/processing/analysis/model
REMARK     user = dcn76311                                                      
REMARK     cmd  = \                                                             
REMARK            /dls_sw/apps/GPhL/BUSTER/20230217/autoBUSTER/bin/linux64/refin
REMARK            -p \                                                          
REMARK            /dls/labxchem/data/lb32627/lb32627-1/processing/analysis/model
REMARK            -m \                                                          
REMARK            /dls/labxchem/data/lb32627/lb32627-1/processing/analysis/model
REMARK            -l \                                                          
REMARK            /dls/labxchem/data/lb32627/lb32627-1/processing/analysis/model
REMARK            -autoncs -M TLSbasic -d Refine_14                             
REMARK Files used:                                                              
REMARK   PDB              = Refine_14/pdbchk.pdb                                
REMARK   MTZ              = /dls/labxchem/data/lb32627/lb32627-1/processing/anal
REMARK output written to subdirectory = Refine_14                               
REMARK best refinement for F,SIGF with R/Rfree 0.1798/0.2110                    
REMARK header records are copied from input PDB file (apart from REMARK 3!)     
REMARK --------------------- added by autoBUSTER -------------------------------
REMARK --------------------- added by autoBUSTER -------------------------------
REMARK run at   = Thu Apr 13 10:46:24 BST 2023                                  
REMARK     in   = /dls/labxchem/data/lb32627/lb32627-1/processing/analysis/model
REMARK     user = dcn76311                                                      
REMARK     cmd  = \                                                             
REMARK            /dls_sw/apps/GPhL/BUSTER/20230217/autoBUSTER/bin/linux64/refin
REMARK            -p \                                                          
REMARK            /dls/labxchem/data/lb32627/lb32627-1/processing/analysis/model
REMARK            -m \                                                          
REMARK            /dls/labxchem/data/lb32627/lb32627-1/processing/analysis/model
REMARK            -l \                                                          
REMARK            /dls/labxchem/data/lb32627/lb32627-1/processing/analysis/model
REMARK            -autoncs -M TLSbasic -d Refine_13                             
REMARK Files used:                                                              
REMARK   PDB              = Refine_13/pdbchk.pdb                                
REMARK   MTZ              = /dls/labxchem/data/lb32627/lb32627-1/processing/anal
REMARK output written to subdirectory = Refine_13                               
REMARK best refinement for F,SIGF with R/Rfree 0.1813/0.2108                    
REMARK header records are copied from input PDB file (apart from REMARK 3!)     
REMARK --------------------- added by autoBUSTER -------------------------------
REMARK --------------------- added by autoBUSTER -------------------------------
REMARK run at   = Thu Apr 13 09:34:40 BST 2023                                  
REMARK     in   = /dls/labxchem/data/lb32627/lb32627-1/processing/analysis/model
REMARK     user = dcn76311                                                      
REMARK     cmd  = \                                                             
REMARK            /dls_sw/apps/GPhL/BUSTER/20230217/autoBUSTER/bin/linux64/refin
REMARK            -p \                                                          
REMARK            /dls/labxchem/data/lb32627/lb32627-1/processing/analysis/model
REMARK            -m \                                                          
REMARK            /dls/labxchem/data/lb32627/lb32627-1/processing/analysis/model
REMARK            -l \                                                          
REMARK            /dls/labxchem/data/lb32627/lb32627-1/processing/analysis/model
REMARK            -autoncs -M TLSbasic -d Refine_12                             
REMARK Files used:                                                              
REMARK   PDB              = Refine_12/pdbchk.pdb                                
REMARK   MTZ              = /dls/labxchem/data/lb32627/lb32627-1/processing/anal
REMARK output written to subdirectory = Refine_12                               
REMARK best refinement for F,SIGF with R/Rfree 0.1814/0.2119                    
REMARK header records are copied from input PDB file (apart from REMARK 3!)     
REMARK --------------------- added by autoBUSTER -------------------------------
REMARK --------------------- added by autoBUSTER -------------------------------
REMARK run at   = Thu Apr 13 08:49:47 BST 2023                                  
REMARK     in   = /dls/labxchem/data/lb32627/lb32627-1/processing/analysis/model
REMARK     user = dcn76311                                                      
REMARK     cmd  = \                                                             
REMARK            /dls_sw/apps/GPhL/BUSTER/20230217/autoBUSTER/bin/linux64/refin
REMARK            -p \                                                          
REMARK            /dls/labxchem/data/lb32627/lb32627-1/processing/analysis/model
REMARK            -m \                                                          
REMARK            /dls/labxchem/data/lb32627/lb32627-1/processing/analysis/model
REMARK            -l \                                                          
REMARK            /dls/labxchem/data/lb32627/lb32627-1/processing/analysis/model
REMARK            -autoncs -M TLSbasic -d Refine_11                             
REMARK Files used:                                                              
REMARK   PDB              = Refine_11/pdbchk.pdb                                
REMARK   MTZ              = /dls/labxchem/data/lb32627/lb32627-1/processing/anal
REMARK output written to subdirectory = Refine_11                               
REMARK best refinement for F,SIGF with R/Rfree 0.1813/0.2129                    
REMARK header records are copied from input PDB file (apart from REMARK 3!)     
REMARK --------------------- added by autoBUSTER -------------------------------
REMARK --------------------- added by autoBUSTER -------------------------------
REMARK run at   = Wed Apr 12 14:27:58 BST 2023                                  
REMARK     in   = /dls/labxchem/data/lb32627/lb32627-1/processing/analysis/model
REMARK     user = dcn76311                                                      
REMARK     cmd  = \                                                             
REMARK            /dls_sw/apps/GPhL/BUSTER/20230217/autoBUSTER/bin/linux64/refin
REMARK            -p \                                                          
REMARK            /dls/labxchem/data/lb32627/lb32627-1/processing/analysis/model
REMARK            -m \                                                          
REMARK            /dls/labxchem/data/lb32627/lb32627-1/processing/analysis/model
REMARK            -l \                                                          
REMARK            /dls/labxchem/data/lb32627/lb32627-1/processing/analysis/model
REMARK            -autoncs -M TLSbasic -d Refine_10                             
REMARK Files used:                                                              
REMARK   PDB              = Refine_10/pdbchk.pdb                                
REMARK   MTZ              = /dls/labxchem/data/lb32627/lb32627-1/processing/anal
REMARK output written to subdirectory = Refine_10                               
REMARK best refinement for F,SIGF with R/Rfree 0.1807/0.2125                    
REMARK header records are copied from input PDB file (apart from REMARK 3!)     
REMARK --------------------- added by autoBUSTER -------------------------------
REMARK --------------------- added by autoBUSTER -------------------------------
REMARK run at   = Wed Apr 12 13:37:52 BST 2023                                  
REMARK     in   = /dls/labxchem/data/lb32627/lb32627-1/processing/analysis/model
REMARK     user = dcn76311                                                      
REMARK     cmd  = \                                                             
REMARK            /dls_sw/apps/GPhL/BUSTER/20230217/autoBUSTER/bin/linux64/refin
REMARK            -p \                                                          
REMARK            /dls/labxchem/data/lb32627/lb32627-1/processing/analysis/model
REMARK            -m \                                                          
REMARK            /dls/labxchem/data/lb32627/lb32627-1/processing/analysis/model
REMARK            -l \                                                          
REMARK            /dls/labxchem/data/lb32627/lb32627-1/processing/analysis/model
REMARK            -autoncs -M TLSbasic -d Refine_9                              
REMARK Files used:                                                              
REMARK   PDB              = Refine_9/pdbchk.pdb                                 
REMARK   MTZ              = /dls/labxchem/data/lb32627/lb32627-1/processing/anal
REMARK output written to subdirectory = Refine_9                                
REMARK best refinement for F,SIGF with R/Rfree 0.1807/0.2145                    
REMARK header records are copied from input PDB file (apart from REMARK 3!)     
REMARK --------------------- added by autoBUSTER -------------------------------
REMARK --------------------- added by autoBUSTER -------------------------------
REMARK run at   = Tue Apr 11 10:20:31 BST 2023                                  
REMARK     in   = /dls/labxchem/data/lb32627/lb32627-1/processing/analysis/model
REMARK     user = dcn76311                                                      
REMARK     cmd  = \                                                             
REMARK            /dls_sw/apps/GPhL/BUSTER/20230217/autoBUSTER/bin/linux64/refin
REMARK            -p \                                                          
REMARK            /dls/labxchem/data/lb32627/lb32627-1/processing/analysis/model
REMARK            -m \                                                          
REMARK            /dls/labxchem/data/lb32627/lb32627-1/processing/analysis/model
REMARK            -l \                                                          
REMARK            /dls/labxchem/data/lb32627/lb32627-1/processing/analysis/model
REMARK            -autoncs -M TLSbasic -d Refine_8                              
REMARK Files used:                                                              
REMARK   PDB              = Refine_8/pdbchk.pdb                                 
REMARK   MTZ              = /dls/labxchem/data/lb32627/lb32627-1/processing/anal
REMARK output written to subdirectory = Refine_8                                
REMARK best refinement for F,SIGF with R/Rfree 0.1804/0.2137                    
REMARK header records are copied from input PDB file (apart from REMARK 3!)     
REMARK --------------------- added by autoBUSTER -------------------------------
REMARK --------------------- added by autoBUSTER -------------------------------
REMARK run at   = Wed Apr  5 11:10:58 BST 2023                                  
REMARK     in   = /dls/labxchem/data/lb32627/lb32627-1/processing/analysis/model
REMARK     user = dcn76311                                                      
REMARK     cmd  = \                                                             
REMARK            /dls_sw/apps/GPhL/BUSTER/20230217/autoBUSTER/bin/linux64/refin
REMARK            -p \                                                          
REMARK            /dls/labxchem/data/lb32627/lb32627-1/processing/analysis/model
REMARK            -m \                                                          
REMARK            /dls/labxchem/data/lb32627/lb32627-1/processing/analysis/model
REMARK            -l \                                                          
REMARK            /dls/labxchem/data/lb32627/lb32627-1/processing/analysis/model
REMARK            -autoncs -M TLSbasic -d Refine_7                              
REMARK Files used:                                                              
REMARK   PDB              = Refine_7/pdbchk.pdb                                 
REMARK   MTZ              = /dls/labxchem/data/lb32627/lb32627-1/processing/anal
REMARK output written to subdirectory = Refine_7                                
REMARK best refinement for F,SIGF with R/Rfree 0.1804/0.2137                    
REMARK header records are copied from input PDB file (apart from REMARK 3!)     
REMARK --------------------- added by autoBUSTER -------------------------------
REMARK --------------------- added by autoBUSTER -------------------------------
REMARK run at   = Wed Apr  5 10:37:03 BST 2023                                  
REMARK     in   = /dls/labxchem/data/lb32627/lb32627-1/processing/analysis/model
REMARK     user = dcn76311                                                      
REMARK     cmd  = \                                                             
REMARK            /dls_sw/apps/GPhL/BUSTER/20230217/autoBUSTER/bin/linux64/refin
REMARK            -p \                                                          
REMARK            /dls/labxchem/data/lb32627/lb32627-1/processing/analysis/model
REMARK            -m \                                                          
REMARK            /dls/labxchem/data/lb32627/lb32627-1/processing/analysis/model
REMARK            -l \                                                          
REMARK            /dls/labxchem/data/lb32627/lb32627-1/processing/analysis/model
REMARK            -autoncs -M TLSbasic -d Refine_6                              
REMARK Files used:                                                              
REMARK   PDB              = Refine_6/pdbchk.pdb                                 
REMARK   MTZ              = /dls/labxchem/data/lb32627/lb32627-1/processing/anal
REMARK output written to subdirectory = Refine_6                                
REMARK best refinement for F,SIGF with R/Rfree 0.1809/0.2152                    
REMARK header records are copied from input PDB file (apart from REMARK 3!)     
REMARK --------------------- added by autoBUSTER -------------------------------
REMARK --------------------- added by autoBUSTER -------------------------------
REMARK run at   = Wed Mar  8 15:51:04 GMT 2023                                  
REMARK     in   = /dls/labxchem/data/lb32627/lb32627-1/processing/analysis/model
REMARK     user = dcn76311                                                      
REMARK     cmd  = \                                                             
REMARK            /dls_sw/apps/GPhL/BUSTER/20221121/autoBUSTER/bin/linux64/refin
REMARK            -p \                                                          
REMARK            /dls/labxchem/data/lb32627/lb32627-1/processing/analysis/model
REMARK            -m \                                                          
REMARK            /dls/labxchem/data/lb32627/lb32627-1/processing/analysis/model
REMARK            -l \                                                          
REMARK            /dls/labxchem/data/lb32627/lb32627-1/processing/analysis/model
REMARK            -autoncs -M TLSbasic -d Refine_3                              
REMARK Files used:                                                              
REMARK   PDB              = Refine_3/pdbchk.pdb                                 
REMARK   MTZ              = /dls/labxchem/data/lb32627/lb32627-1/processing/anal
REMARK output written to subdirectory = Refine_3                                
REMARK best refinement for F,SIGF with R/Rfree 0.1816/0.2139                    
REMARK header records are copied from input PDB file (apart from REMARK 3!)     
REMARK --------------------- added by autoBUSTER -------------------------------
REMARK --------------------- added by autoBUSTER -------------------------------
REMARK run at   = Tue Mar  7 15:33:28 GMT 2023                                  
REMARK     in   = /dls/labxchem/data/lb32627/lb32627-1/processing/analysis/model
REMARK     user = dcn76311                                                      
REMARK     cmd  = \                                                             
REMARK            /dls_sw/apps/GPhL/BUSTER/20221121/autoBUSTER/bin/linux64/refin
REMARK            -p \                                                          
REMARK            /dls/labxchem/data/lb32627/lb32627-1/processing/analysis/model
REMARK            -m \                                                          
REMARK            /dls/labxchem/data/lb32627/lb32627-1/processing/analysis/model
REMARK            -l \                                                          
REMARK            /dls/labxchem/data/lb32627/lb32627-1/processing/analysis/model
REMARK            -autoncs -M TLSbasic -d Refine_2                              
REMARK Files used:                                                              
REMARK   PDB              = Refine_2/pdbchk.pdb                                 
REMARK   MTZ              = /dls/labxchem/data/lb32627/lb32627-1/processing/anal
REMARK output written to subdirectory = Refine_2                                
REMARK best refinement for F,SIGF with R/Rfree 0.1827/0.2194                    
REMARK header records are copied from input PDB file (apart from REMARK 3!)     
REMARK --------------------- added by autoBUSTER -------------------------------
REMARK --------------------- added by autoBUSTER -------------------------------
REMARK run at   = Fri Mar  3 15:13:28 GMT 2023                                  
REMARK     in   = /dls/labxchem/data/lb32627/lb32627-1/processing/analysis/model
REMARK     user = dcn76311                                                      
REMARK     cmd  = \                                                             
REMARK            /dls_sw/apps/GPhL/BUSTER/20221121/autoBUSTER/bin/linux64/refin
REMARK            -p \                                                          
REMARK            /dls/labxchem/data/lb32627/lb32627-1/processing/analysis/model
REMARK            -m \                                                          
REMARK            /dls/labxchem/data/lb32627/lb32627-1/processing/analysis/model
REMARK            -l \                                                          
REMARK            /dls/labxchem/data/lb32627/lb32627-1/processing/analysis/model
REMARK            -autoncs -M TLSbasic -d Refine_1                              
REMARK Files used:                                                              
REMARK   PDB              = Refine_1/pdbchk.pdb                                 
REMARK   MTZ              = /dls/labxchem/data/lb32627/lb32627-1/processing/anal
REMARK output written to subdirectory = Refine_1                                
REMARK best refinement for F,SIGF with R/Rfree 0.1828/0.2178                    
REMARK header records are copied from input PDB file (apart from REMARK 3!)     
REMARK --------------------- added by autoBUSTER -------------------------------
REMARK   2                                                            
REMARK   2 RESOLUTION.    1.43 ANGSTROMS.
REMARK   3
REMARK   3 REFINEMENT.
REMARK   3   PROGRAM     : BUSTER 2.10.4 (17-FEB-2023)
REMARK   3   AUTHORS     : BRICOGNE,BLANC,BRANDL,FLENSBURG,KELLER,
REMARK   3               : PACIOREK,ROVERSI,SHARFF,SMART,VONRHEIN,WOMACK;
REMARK   3               : MATTHEWS,TEN EYCK,TRONRUD
REMARK   3
REMARK   3  DATA USED IN REFINEMENT.
REMARK   3   RESOLUTION RANGE HIGH (ANGSTROMS) : 1.430
REMARK   3   RESOLUTION RANGE LOW  (ANGSTROMS) : 19.92
REMARK   3   DATA CUTOFF            (SIGMA(F)) : 0.000
REMARK   3   COMPLETENESS FOR RANGE        (%) : 100.0
REMARK   3   NUMBER OF REFLECTIONS             : 57709
REMARK   3
REMARK   3  FIT TO DATA USED IN REFINEMENT.
REMARK   3   CROSS-VALIDATION METHOD          : THROUGHOUT
REMARK   3   FREE R VALUE TEST SET SELECTION  : RANDOM
REMARK   3   R VALUE     (WORKING + TEST SET) : 0.1812
REMARK   3   R VALUE            (WORKING SET) : 0.1796
REMARK   3   FREE R VALUE                     : 0.2120
REMARK   3   FREE R VALUE TEST SET SIZE   (%) : 4.920
REMARK   3   FREE R VALUE TEST SET COUNT      : 2842
REMARK   3   ESTIMATED ERROR OF FREE R VALUE  : NULL
REMARK   3
REMARK   3  FIT IN THE HIGHEST RESOLUTION BIN.
REMARK   3   TOTAL NUMBER OF BINS USED           : 51
REMARK   3   BIN RESOLUTION RANGE HIGH       (A) : 1.43
REMARK   3   BIN RESOLUTION RANGE LOW        (A) : 1.44
REMARK   3   BIN COMPLETENESS (WORKING+TEST) (%) : 99.92
REMARK   3   REFLECTIONS IN BIN   (WORKING+TEST) : 1155
REMARK   3   BIN R VALUE          (WORKING+TEST) : 0.3415
REMARK   3   REFLECTIONS IN BIN    (WORKING SET) : 1096
REMARK   3   BIN R VALUE           (WORKING SET) : 0.3365
REMARK   3   BIN FREE R VALUE                    : 0.4374
REMARK   3   BIN FREE R VALUE TEST SET SIZE  (%) : 5.11
REMARK   3   BIN FREE R VALUE TEST SET COUNT     : 59
REMARK   3   ESTIMATED ERROR OF BIN FREE R VALUE : NULL
REMARK   3
REMARK   3  NUMBER OF NON-HYDROGEN ATOMS USED IN REFINEMENT.
REMARK   3   PROTEIN ATOMS            : 2519
REMARK   3   NUCLEIC ACID ATOMS       : 0
REMARK   3   HETEROGEN ATOMS          : 22
REMARK   3   SOLVENT ATOMS            : 403
REMARK   3
REMARK   3  B VALUES.
REMARK   3   FROM WILSON PLOT           (A**2) : 20.15
REMARK   3   MEAN B VALUE      (OVERALL, A**2) : 23.54
REMARK   3   OVERALL ANISOTROPIC B VALUE.
REMARK   3    B11 (A**2) : 2.67620
REMARK   3    B22 (A**2) : 2.67620
REMARK   3    B33 (A**2) : -5.35250
REMARK   3    B12 (A**2) : 0.00000
REMARK   3    B13 (A**2) : 0.00000
REMARK   3    B23 (A**2) : 0.00000
REMARK   3
REMARK   3  ESTIMATED COORDINATE ERROR.
REMARK   3   ESD FROM LUZZATI PLOT                    (A) : 0.18
REMARK   3   DPI (BLOW EQ-10) BASED ON R VALUE        (A) : 0.070
REMARK   3   DPI (BLOW EQ-9) BASED ON FREE R VALUE    (A) : 0.073
REMARK   3   DPI (CRUICKSHANK) BASED ON R VALUE       (A) : 0.066
REMARK   3   DPI (CRUICKSHANK) BASED ON FREE R VALUE  (A) : 0.069
REMARK   3
REMARK   3   REFERENCES: BLOW, D. (2002) ACTA CRYST D58, 792-797
REMARK   3               CRUICKSHANK, D.W.J. (1999) ACTA CRYST D55, 583-601
REMARK   3
REMARK   3  CORRELATION COEFFICIENTS.
REMARK   3   CORRELATION COEFFICIENT FO-FC      : 0.963
REMARK   3   CORRELATION COEFFICIENT FO-FC FREE : 0.955
REMARK   3
REMARK   3  X-RAY WEIGHT : 4.84
REMARK   3
REMARK   3  GEOMETRY FUNCTION.                                                  
REMARK   3   RESTRAINT LIBRARIES.                                               
REMARK   3    NUMBER OF LIBRARIES USED :   9                                    
REMARK   3    LIBRARY  1 : protgeo_eh99.dat (V1.6.4.20) 20220523  STANDARD      
REMARK   3                 AMINO ACID DICTIONARY. BONDS AND ANGLES FROM         
REMARK   3                 ENGH AND HUBER EH99. OTHER VALUES BASED ON           
REMARK   3                 PREVIOUS TNT OR TAKEN FROM CCP4. INCLUDES            
REMARK   3                 HYDROGEN ATOMS.                                      
REMARK   3    LIBRARY  2 : exoticaa.dat (V1.3.4.16) 20220523  COLLECTION        
REMARK   3                 OF NON-STANDARD AMINO ACIDS, MAINLY EH91             
REMARK   3                 WITHOUT IDEAL DISTANCE INFO                          
REMARK   3    LIBRARY  3 : nuclgeo.dat (V1.13.4.9) 20221011                     
REMARK   3    LIBRARY  4 : bcorrel.dat (V1.15.10.2) 20190616                    
REMARK   3    LIBRARY  5 : contact.dat (V1.15.12.10) 20191121                   
REMARK   3    LIBRARY  6 : idealdist_contact.dat (V1.3.4.13) 20220125           
REMARK   3                 IDEAL-DISTANCE CONTACT TERM DATA AS USED IN          
REMARK   3                 PROLSQ. VALUES USED HERE ARE BASED ON DATA           
REMARK   3                 HARVESTING OF PDB AS OF 20190109.                    
REMARK   3    LIBRARY  7 : restraints for LIG (unknown) from cif                
REMARK   3                 dictionary ASAP-0008347-001.cif; generated by        
REMARK   3                 GRADE 1.2.21 (Feb 03 2022) from SMILES               
REMARK   3                 O=C(O)[C@H](CC1CC1)Nc1ncnc2[nH]ccc12 using           
REMARK   3                 MOGUL 1.8.5(274361), CSD as541be, with quantum       
REMARK   3                 mechanics RM1                                        
REMARK   3    LIBRARY  8 : restraints for DMS (DIMETHYL SULFOXIDE) from         
REMARK   3                 cif dictionary DMS.cif; generated by grade2          
REMARK   3                 version 1.1.0a7 from                                 
REMARK   3                 PDB_chemical_components_definition_file              
REMARK   3                 ftp://ftp.ebi.ac.uk/pub/databases/msd/pdbechem_v     
REMARK   3                 2/D/DMS/DMS.cif using RDKit 2021.03.4                
REMARK   3                 ((DatabaseID PDB-DMS))                               
REMARK   3    LIBRARY  9 : assume.dat (V1.9.4.3) 20221011                       
REMARK   3                                                                      
REMARK   3   NUMBER OF GEOMETRIC FUNCTION TERMS DEFINED : 15                    
REMARK   3   TERM                          COUNT    WEIGHT   FUNCTION.          
REMARK   3    BOND LENGTHS              :   2679 ;   2.00 ;  HARMONIC           
REMARK   3    BOND ANGLES               :   3663 ;   2.00 ;  HARMONIC           
REMARK   3    TORSION ANGLES            :    921 ;   2.00 ;  SINUSOIDAL         
REMARK   3    TRIGONAL CARBON PLANES    :   NULL ;   NULL ;  NULL               
REMARK   3    GENERAL PLANES            :    482 ;   5.00 ;  HARMONIC           
REMARK   3    ISOTROPIC THERMAL FACTORS :   2679 ;  10.00 ;  HARMONIC           
REMARK   3    BAD NON-BONDED CONTACTS   :   NULL ;   NULL ;  NULL               
REMARK   3    IMPROPER TORSIONS         :   NULL ;   NULL ;  NULL               
REMARK   3    PSEUDOROTATION ANGLES     :   NULL ;   NULL ;  NULL               
REMARK   3    CHIRAL IMPROPER TORSION   :    345 ;   5.00 ;  SEMIHARMONIC       
REMARK   3    SUM OF OCCUPANCIES        :   NULL ;   NULL ;  NULL               
REMARK   3    UTILITY DISTANCES         :   NULL ;   NULL ;  NULL               
REMARK   3    UTILITY ANGLES            :   NULL ;   NULL ;  NULL               
REMARK   3    UTILITY TORSION           :   NULL ;   NULL ;  NULL               
REMARK   3    IDEAL-DIST CONTACT TERM   :   2631 ;   4.00 ;  SEMIHARMONIC       
REMARK   3                                                                      
REMARK   3   RMS DEVIATIONS FROM IDEAL VALUES.                                  
REMARK   3   BOND LENGTHS                       (A) : 0.011                     
REMARK   3   BOND ANGLES                  (DEGREES) : 1.09                      
REMARK   3   PEPTIDE OMEGA TORSION ANGLES (DEGREES) : 4.27                      
REMARK   3   OTHER TORSION ANGLES         (DEGREES) : 15.34                     
REMARK   3                                                                      
REMARK   3   SIMILARITY.                                                        
REMARK   3    NCS.                                                              
REMARK   3     NCS METHOD: RESTRAINT LSSR (-AUTONCS)                            
REMARK   3    TARGET RESTRAINTS.                                                
REMARK   3     TARGET REPRESENTATION : NONE                                     
REMARK   3     TARGET STRUCTURE : NULL                                          
REMARK   3                                                                      
REMARK   3  TLS DETAILS.                                                        
REMARK   3   NUMBER OF TLS GROUPS  :            2                               
REMARK   3                                                                      
REMARK   3   TLS GROUP :            1                                           
REMARK   3    SET : { A|* }                                                     
REMARK   3    ORIGIN FOR THE GROUP (A):    4.0958   21.3336   -0.5186           
REMARK   3    T TENSOR                                                          
REMARK   3     T11:   -0.0066 T22:   -0.0092                                    
REMARK   3     T33:   -0.0192 T12:   -0.0018                                    
REMARK   3     T13:   -0.0245 T23:    0.0044                                    
REMARK   3    L TENSOR                                                          
REMARK   3     L11:    0.5619 L22:    1.0672                                    
REMARK   3     L33:    0.0959 L12:   -0.1861                                    
REMARK   3     L13:   -0.0367 L23:   -0.0567                                    
REMARK   3    S TENSOR                                                          
REMARK   3     S11:    0.0043 S12:   -0.0179 S13:   -0.0274                     
REMARK   3     S21:    0.0242 S22:   -0.0052 S23:   -0.0525                     
REMARK   3     S31:   -0.0027 S32:   -0.0117 S33:    0.0010                     
REMARK   3                                                                      
REMARK   3   TLS GROUP :            2                                           
REMARK   3    SET : { B|* }                                                     
REMARK   3    ORIGIN FOR THE GROUP (A):   22.4462   43.3378   -7.7551           
REMARK   3    T TENSOR                                                          
REMARK   3     T11:   -0.0305 T22:   -0.0159                                    
REMARK   3     T33:   -0.0179 T12:    0.0054                                    
REMARK   3     T13:   -0.0059 T23:   -0.0048                                    
REMARK   3    L TENSOR                                                          
REMARK   3     L11:    1.2817 L22:    1.4533                                    
REMARK   3     L33:    0.2747 L12:   -0.3676                                    
REMARK   3     L13:   -0.3539 L23:    0.1291                                    
REMARK   3    S TENSOR                                                          
REMARK   3     S11:    0.0569 S12:   -0.0004 S13:   -0.0314                     
REMARK   3     S21:   -0.0224 S22:   -0.0520 S23:   -0.1109                     
REMARK   3     S31:   -0.0391 S32:   -0.0076 S33:   -0.0048                     
REMARK   3                                                                      
REMARK   3  REFINEMENT NOTES.                                                   
REMARK   3   NUMBER OF REFINEMENT NOTES :   1                                   
REMARK   3   NOTE   1 : IDEAL-DIST CONTACT TERM CONTACT SETUP. ALL ATOMS        
REMARK   3               HAVE CCP4 ATOM TYPE FROM LIBRARY                       
REMARK   3
REMARK   3  OTHER REFINEMENT REMARKS: NULL
REMARK   3
REMARK 290                                                            
REMARK 290 CRYSTALLOGRAPHIC SYMMETRY                                  
REMARK 290 SYMMETRY OPERATORS FOR SPACE GROUP: P 43                   
REMARK 290                                                            
REMARK 290      SYMOP   SYMMETRY                                      
REMARK 290     NNNMMM   OPERATOR                                      
REMARK 290       1555   X,Y,Z                                         
REMARK 290       2555   -X,-Y,1/2+Z                                   
REMARK 290       3555   -Y,X,3/4+Z                                    
REMARK 290       4555   Y,-X,1/4+Z                                    
REMARK 290                                                            
REMARK 290     WHERE NNN -> OPERATOR NUMBER                           
REMARK 290           MMM -> TRANSLATION VECTOR                        
REMARK 290                                                            
REMARK 290 CRYSTALLOGRAPHIC SYMMETRY TRANSFORMATIONS                  
REMARK 290 THE FOLLOWING TRANSFORMATIONS OPERATE ON THE ATOM/HETATM   
REMARK 290 RECORDS IN THIS ENTRY TO PRODUCE CRYSTALLOGRAPHICALLY      
REMARK 290 RELATED MOLECULES.                                         
REMARK 290   SMTRY1   1  1.000000  0.000000  0.000000        0.00000
REMARK 290   SMTRY2   1  0.000000  1.000000  0.000000        0.00000
REMARK 290   SMTRY3   1  0.000000  0.000000  1.000000        0.00000
REMARK 290   SMTRY1   2 -1.000000  0.000000  0.000000        0.00000
REMARK 290   SMTRY2   2  0.000000 -1.000000  0.000000        0.00000
REMARK 290   SMTRY3   2  0.000000  0.000000  1.000000       19.77500
REMARK 290   SMTRY1   3  0.000000 -1.000000  0.000000        0.00000
REMARK 290   SMTRY2   3  1.000000  0.000000  0.000000        0.00000
REMARK 290   SMTRY3   3  0.000000  0.000000  1.000000       29.66250
REMARK 290   SMTRY1   4  0.000000  1.000000  0.000000        0.00000
REMARK 290   SMTRY2   4 -1.000000  0.000000  0.000000        0.00000
REMARK 290   SMTRY3   4  0.000000  0.000000  1.000000        9.88750
REMARK 290                                                            
REMARK 290 REMARK: NULL                                               
REMARK 300
REMARK 300 BIOMOLECULE: 1, 2
REMARK 300 SEE REMARK 350 FOR THE AUTHOR PROVIDED AND/OR PROGRAM
REMARK 300 GENERATED ASSEMBLY INFORMATION FOR THE STRUCTURE IN
REMARK 300 THIS ENTRY. THE REMARK MAY ALSO  PROVIDE INFORMATION ON
REMARK 300 BURIED SURFACE AREA.
REMARK 350
REMARK 350 COORDINATES FOR A COMPLETE MULTIMER REPRESENTING THE KNOWN
REMARK 350 BIOLOGICALLY SIGNIFICANT OLIGOMERIZATION STATE OF THE
REMARK 350 MOLECULE CAN BE GENERATED BY APPLYING BIOMT TRANSFORMATIONS
REMARK 350 GIVEN BELOW. BOTH NON-CRYSTALLOGRAPHIC AND
REMARK 350 CRYSTALLOGRAPHIC OPERATIONS ARE GIVEN.
REMARK 350
REMARK 350 BIOMOLECULE: 1
REMARK 350 SOFTWARE DETERMINED QUATERNARY STRUCTURE: MONOMERIC
REMARK 350 SOFTWARE USED: PISA
REMARK 350 SURFACE AREA OF THE MONOMER: 7784 ANGSTROM**2
REMARK 350 FREE ENERGY OF FOLDING: -154.2 KCAL/MOL
REMARK 350 APPLY THE FOLLOWING TO CHAINS: A,W
REMARK 350   BIOMT1   1  1.000000  0.000000  0.000000        0.00000
REMARK 350   BIOMT2   1  0.000000  1.000000  0.000000        0.00000
REMARK 350   BIOMT3   1  0.000000  0.000000  1.000000        0.00000
REMARK 350
REMARK 350 BIOMOLECULE: 2
REMARK 350 SOFTWARE DETERMINED QUATERNARY STRUCTURE: MONOMERIC
REMARK 350 SOFTWARE USED: PISA
REMARK 350 SURFACE AREA OF THE MONOMER: 8170 ANGSTROM**2
REMARK 350 FREE ENERGY OF FOLDING: -155.6 KCAL/MOL
REMARK 350 APPLY THE FOLLOWING TO CHAINS: B,W
REMARK 350   BIOMT1   1  1.000000  0.000000  0.000000        0.00000
REMARK 350   BIOMT2   1  0.000000  1.000000  0.000000        0.00000
REMARK 350   BIOMT3   1  0.000000  0.000000  1.000000        0.00000
CRYST1   89.100   89.100   39.550  90.00  90.00  90.00 P 43                     


$$$$
SARS2_Mac1A-A1222
  PyMOL3.0          3D                             0

 18 20  0  0  0  0  0  0  0  0999 V2000
   -1.0460   13.9500   -2.6740 N   0  0  0  0  0  0  0  0  0  0  0  0
    0.7860   12.2580   -2.7620 C   0  0  0  0  0  0  0  0  0  0  0  0
    0.1900   11.1910   -2.6230 O   0  0  0  0  0  0  0  0  0  0  0  0
    0.1750   13.5020   -3.3670 C   0  0  0  0  0  0  0  0  0  0  0  0
    0.0580   14.2750   -0.6000 N   0  0  0  0  0  0  0  0  0  0  0  0
    2.0010   12.4540   -2.4270 O   0  0  0  0  0  0  0  0  0  0  0  0
   -0.3290   13.1770   -4.7790 C   0  0  0  0  0  0  0  0  0  0  0  0
   -1.0630   14.9450    1.4290 N   0  0  0  0  0  0  0  0  0  0  0  0
   -1.7850   11.3190   -4.1520 O   0  0  0  0  0  0  0  0  0  0  0  0
   -1.7570   12.7080   -4.5400 C   0  0  0  0  0  0  0  0  0  0  0  0
   -3.3490   15.6520    1.1190 N   0  0  0  0  0  0  0  0  0  0  0  0
   -2.2550   13.6410   -3.4460 C   0  0  0  0  0  0  0  0  0  0  0  0
   -1.0620   14.4310   -1.3260 C   0  0  0  0  0  0  0  0  0  0  0  0
   -0.0150   14.5430    0.7110 C   0  0  0  0  0  0  0  0  0  0  0  0
   -2.1540   15.1460    0.6800 C   0  0  0  0  0  0  0  0  0  0  0  0
   -4.1940   15.7510    0.0380 C   0  0  0  0  0  0  0  0  0  0  0  0
   -3.5690   15.3230   -1.0890 C   0  0  0  0  0  0  0  0  0  0  0  0
   -2.2510   14.9210   -0.7010 C   0  0  0  0  0  0  0  0  0  0  0  0
  1 12  1  0  0  0  0
  1 13  1  0  0  0  0
  2  4  1  0  0  0  0
  2  6  4  0  0  0  0
  2  3  4  0  0  0  0
  1  4  1  0  0  0  0
  4  7  1  0  0  0  0
  8 14  4  0  0  0  0
  7 10  1  0  0  0  0
  9 10  1  0  0  0  0
 11 15  4  0  0  0  0
 10 12  1  0  0  0  0
  5 13  4  0  0  0  0
 13 18  4  0  0  0  0
  5 14  4  0  0  0  0
  8 15  4  0  0  0  0
 11 16  4  0  0  0  0
 16 17  4  0  0  0  0
 15 18  4  0  0  0  0
 17 18  4  0  0  0  0
M  END
>  <pdb_header>
HEADER    ----                                    18-MAY-20                     
TITLE     ---                                                                   
EXPDTA    X-RAY DIFFRACTION                                                     
REMARK --------------------- added by autoBUSTER ---------------------------------START
REMARK run at   = Wed Apr 19 14:34:10 BST 2023
REMARK     in   = /dls/labxchem/data/lb32627/lb32627-1/processing/analysis/model_building/SARS2_Mac1A-A1222
REMARK     user = dcn76311
REMARK     cmd  = \
REMARK            /dls_sw/apps/GPhL/BUSTER/20230217/autoBUSTER/bin/linux64/refine \
REMARK            -p \
REMARK            /dls/labxchem/data/lb32627/lb32627-1/processing/analysis/model_building/SARS2_Mac1A-A1222/cootOut/Refi
REMARK            -m \
REMARK            /dls/labxchem/data/lb32627/lb32627-1/processing/analysis/model_building/SARS2_Mac1A-A1222/SARS2_Mac1A-
REMARK            -l \
REMARK            /dls/labxchem/data/lb32627/lb32627-1/processing/analysis/model_building/SARS2_Mac1A-A1222/ASAP-0008351
REMARK            -autoncs -M TLSbasic -d Refine_17
REMARK Files used:
REMARK   PDB              = Refine_17/pdbchk.pdb
REMARK   MTZ              = /dls/labxchem/data/lb32627/lb32627-1/processing/analysis/model_building/SARS2_Mac1A-A1222/SA
REMARK output written to subdirectory = Refine_17
REMARK best refinement for F,SIGF with R/Rfree 0.1830/0.2252
REMARK header records are copied from input PDB file (apart from REMARK 3!)
REMARK --------------------- added by autoBUSTER -----------------------------------END
REMARK --------------------- added by autoBUSTER -------------------------------
REMARK run at   = Wed Apr 19 14:23:56 BST 2023                                  
REMARK     in   = /dls/labxchem/data/lb32627/lb32627-1/processing/analysis/model
REMARK     user = dcn76311                                                      
REMARK     cmd  = \                                                             
REMARK            /dls_sw/apps/GPhL/BUSTER/20230217/autoBUSTER/bin/linux64/refin
REMARK            -p \                                                          
REMARK            /dls/labxchem/data/lb32627/lb32627-1/processing/analysis/model
REMARK            -m \                                                          
REMARK            /dls/labxchem/data/lb32627/lb32627-1/processing/analysis/model
REMARK            -l \                                                          
REMARK            /dls/labxchem/data/lb32627/lb32627-1/processing/analysis/model
REMARK            -autoncs -M TLSbasic -d Refine_16                             
REMARK Files used:                                                              
REMARK   PDB              = Refine_16/pdbchk.pdb                                
REMARK   MTZ              = /dls/labxchem/data/lb32627/lb32627-1/processing/anal
REMARK output written to subdirectory = Refine_16                               
REMARK best refinement for F,SIGF with R/Rfree 0.1831/0.2255                    
REMARK header records are copied from input PDB file (apart from REMARK 3!)     
REMARK --------------------- added by autoBUSTER -------------------------------
REMARK --------------------- added by autoBUSTER -------------------------------
REMARK run at   = Fri Apr 14 10:37:45 BST 2023                                  
REMARK     in   = /dls/labxchem/data/lb32627/lb32627-1/processing/analysis/model
REMARK     user = dcn76311                                                      
REMARK     cmd  = \                                                             
REMARK            /dls_sw/apps/GPhL/BUSTER/20230217/autoBUSTER/bin/linux64/refin
REMARK            -p \                                                          
REMARK            /dls/labxchem/data/lb32627/lb32627-1/processing/analysis/model
REMARK            -m \                                                          
REMARK            /dls/labxchem/data/lb32627/lb32627-1/processing/analysis/model
REMARK            -l \                                                          
REMARK            /dls/labxchem/data/lb32627/lb32627-1/processing/analysis/model
REMARK            -autoncs -M TLSbasic -d Refine_15                             
REMARK Files used:                                                              
REMARK   PDB              = Refine_15/pdbchk.pdb                                
REMARK   MTZ              = /dls/labxchem/data/lb32627/lb32627-1/processing/anal
REMARK output written to subdirectory = Refine_15                               
REMARK best refinement for F,SIGF with R/Rfree 0.1837/0.2254                    
REMARK header records are copied from input PDB file (apart from REMARK 3!)     
REMARK --------------------- added by autoBUSTER -------------------------------
REMARK --------------------- added by autoBUSTER -------------------------------
REMARK run at   = Thu Apr 13 12:48:33 BST 2023                                  
REMARK     in   = /dls/labxchem/data/lb32627/lb32627-1/processing/analysis/model
REMARK     user = dcn76311                                                      
REMARK     cmd  = \                                                             
REMARK            /dls_sw/apps/GPhL/BUSTER/20230217/autoBUSTER/bin/linux64/refin
REMARK            -p \                                                          
REMARK            /dls/labxchem/data/lb32627/lb32627-1/processing/analysis/model
REMARK            -m \                                                          
REMARK            /dls/labxchem/data/lb32627/lb32627-1/processing/analysis/model
REMARK            -l \                                                          
REMARK            /dls/labxchem/data/lb32627/lb32627-1/processing/analysis/model
REMARK            -autoncs -M TLSbasic -d Refine_14                             
REMARK Files used:                                                              
REMARK   PDB              = Refine_14/pdbchk.pdb                                
REMARK   MTZ              = /dls/labxchem/data/lb32627/lb32627-1/processing/anal
REMARK output written to subdirectory = Refine_14                               
REMARK best refinement for F,SIGF with R/Rfree 0.1834/0.2255                    
REMARK header records are copied from input PDB file (apart from REMARK 3!)     
REMARK --------------------- added by autoBUSTER -------------------------------
REMARK --------------------- added by autoBUSTER -------------------------------
REMARK run at   = Thu Apr 13 11:15:34 BST 2023                                  
REMARK     in   = /dls/labxchem/data/lb32627/lb32627-1/processing/analysis/model
REMARK     user = dcn76311                                                      
REMARK     cmd  = \                                                             
REMARK            /dls_sw/apps/GPhL/BUSTER/20230217/autoBUSTER/bin/linux64/refin
REMARK            -p \                                                          
REMARK            /dls/labxchem/data/lb32627/lb32627-1/processing/analysis/model
REMARK            -m \                                                          
REMARK            /dls/labxchem/data/lb32627/lb32627-1/processing/analysis/model
REMARK            -l \                                                          
REMARK            /dls/labxchem/data/lb32627/lb32627-1/processing/analysis/model
REMARK            -autoncs -M TLSbasic -d Refine_13                             
REMARK Files used:                                                              
REMARK   PDB              = Refine_13/pdbchk.pdb                                
REMARK   MTZ              = /dls/labxchem/data/lb32627/lb32627-1/processing/anal
REMARK output written to subdirectory = Refine_13                               
REMARK best refinement for F,SIGF with R/Rfree 0.1838/0.2239                    
REMARK header records are copied from input PDB file (apart from REMARK 3!)     
REMARK --------------------- added by autoBUSTER -------------------------------
REMARK --------------------- added by autoBUSTER -------------------------------
REMARK run at   = Thu Apr 13 10:56:37 BST 2023                                  
REMARK     in   = /dls/labxchem/data/lb32627/lb32627-1/processing/analysis/model
REMARK     user = dcn76311                                                      
REMARK     cmd  = \                                                             
REMARK            /dls_sw/apps/GPhL/BUSTER/20230217/autoBUSTER/bin/linux64/refin
REMARK            -p \                                                          
REMARK            /dls/labxchem/data/lb32627/lb32627-1/processing/analysis/model
REMARK            -m \                                                          
REMARK            /dls/labxchem/data/lb32627/lb32627-1/processing/analysis/model
REMARK            -l \                                                          
REMARK            /dls/labxchem/data/lb32627/lb32627-1/processing/analysis/model
REMARK            -autoncs -M TLSbasic -d Refine_12                             
REMARK Files used:                                                              
REMARK   PDB              = Refine_12/pdbchk.pdb                                
REMARK   MTZ              = /dls/labxchem/data/lb32627/lb32627-1/processing/anal
REMARK output written to subdirectory = Refine_12                               
REMARK best refinement for F,SIGF with R/Rfree 0.1837/0.2258                    
REMARK header records are copied from input PDB file (apart from REMARK 3!)     
REMARK --------------------- added by autoBUSTER -------------------------------
REMARK --------------------- added by autoBUSTER -------------------------------
REMARK run at   = Thu Apr 13 10:36:55 BST 2023                                  
REMARK     in   = /dls/labxchem/data/lb32627/lb32627-1/processing/analysis/model
REMARK     user = dcn76311                                                      
REMARK     cmd  = \                                                             
REMARK            /dls_sw/apps/GPhL/BUSTER/20230217/autoBUSTER/bin/linux64/refin
REMARK            -p \                                                          
REMARK            /dls/labxchem/data/lb32627/lb32627-1/processing/analysis/model
REMARK            -m \                                                          
REMARK            /dls/labxchem/data/lb32627/lb32627-1/processing/analysis/model
REMARK            -l \                                                          
REMARK            /dls/labxchem/data/lb32627/lb32627-1/processing/analysis/model
REMARK            -autoncs -M TLSbasic -d Refine_11                             
REMARK Files used:                                                              
REMARK   PDB              = Refine_11/pdbchk.pdb                                
REMARK   MTZ              = /dls/labxchem/data/lb32627/lb32627-1/processing/anal
REMARK output written to subdirectory = Refine_11                               
REMARK best refinement for F,SIGF with R/Rfree 0.1866/0.2289                    
REMARK header records are copied from input PDB file (apart from REMARK 3!)     
REMARK --------------------- added by autoBUSTER -------------------------------
REMARK --------------------- added by autoBUSTER -------------------------------
REMARK run at   = Thu Apr 13 09:56:48 BST 2023                                  
REMARK     in   = /dls/labxchem/data/lb32627/lb32627-1/processing/analysis/model
REMARK     user = dcn76311                                                      
REMARK     cmd  = \                                                             
REMARK            /dls_sw/apps/GPhL/BUSTER/20230217/autoBUSTER/bin/linux64/refin
REMARK            -p \                                                          
REMARK            /dls/labxchem/data/lb32627/lb32627-1/processing/analysis/model
REMARK            -m \                                                          
REMARK            /dls/labxchem/data/lb32627/lb32627-1/processing/analysis/model
REMARK            -l \                                                          
REMARK            /dls/labxchem/data/lb32627/lb32627-1/processing/analysis/model
REMARK            -autoncs -M TLSbasic -d Refine_10                             
REMARK Files used:                                                              
REMARK   PDB              = Refine_10/pdbchk.pdb                                
REMARK   MTZ              = /dls/labxchem/data/lb32627/lb32627-1/processing/anal
REMARK output written to subdirectory = Refine_10                               
REMARK best refinement for F,SIGF with R/Rfree 0.1868/0.2276                    
REMARK header records are copied from input PDB file (apart from REMARK 3!)     
REMARK --------------------- added by autoBUSTER -------------------------------
REMARK --------------------- added by autoBUSTER -------------------------------
REMARK run at   = Thu Apr 13 09:05:50 BST 2023                                  
REMARK     in   = /dls/labxchem/data/lb32627/lb32627-1/processing/analysis/model
REMARK     user = dcn76311                                                      
REMARK     cmd  = \                                                             
REMARK            /dls_sw/apps/GPhL/BUSTER/20230217/autoBUSTER/bin/linux64/refin
REMARK            -p \                                                          
REMARK            /dls/labxchem/data/lb32627/lb32627-1/processing/analysis/model
REMARK            -m \                                                          
REMARK            /dls/labxchem/data/lb32627/lb32627-1/processing/analysis/model
REMARK            -l \                                                          
REMARK            /dls/labxchem/data/lb32627/lb32627-1/processing/analysis/model
REMARK            -autoncs -M TLSbasic -d Refine_9                              
REMARK Files used:                                                              
REMARK   PDB              = Refine_9/pdbchk.pdb                                 
REMARK   MTZ              = /dls/labxchem/data/lb32627/lb32627-1/processing/anal
REMARK output written to subdirectory = Refine_9                                
REMARK best refinement for F,SIGF with R/Rfree 0.1862/0.2342                    
REMARK header records are copied from input PDB file (apart from REMARK 3!)     
REMARK --------------------- added by autoBUSTER -------------------------------
REMARK   2                                                            
REMARK   2 RESOLUTION.    1.44 ANGSTROMS.
REMARK   3
REMARK   3 REFINEMENT.
REMARK   3   PROGRAM     : BUSTER 2.10.4 (17-FEB-2023)
REMARK   3   AUTHORS     : BRICOGNE,BLANC,BRANDL,FLENSBURG,KELLER,
REMARK   3               : PACIOREK,ROVERSI,SHARFF,SMART,VONRHEIN,WOMACK;
REMARK   3               : MATTHEWS,TEN EYCK,TRONRUD
REMARK   3
REMARK   3  DATA USED IN REFINEMENT.
REMARK   3   RESOLUTION RANGE HIGH (ANGSTROMS) : 1.436
REMARK   3   RESOLUTION RANGE LOW  (ANGSTROMS) : 14.83
REMARK   3   DATA CUTOFF            (SIGMA(F)) : 0.000
REMARK   3   COMPLETENESS FOR RANGE        (%) : 56.4
REMARK   3   NUMBER OF REFLECTIONS             : 31989
REMARK   3
REMARK   3  FIT TO DATA USED IN REFINEMENT.
REMARK   3   CROSS-VALIDATION METHOD          : THROUGHOUT
REMARK   3   FREE R VALUE TEST SET SELECTION  : RANDOM
REMARK   3   R VALUE     (WORKING + TEST SET) : 0.1850
REMARK   3   R VALUE            (WORKING SET) : 0.1830
REMARK   3   FREE R VALUE                     : 0.2252
REMARK   3   FREE R VALUE TEST SET SIZE   (%) : 4.710
REMARK   3   FREE R VALUE TEST SET COUNT      : 1506
REMARK   3   ESTIMATED ERROR OF FREE R VALUE  : NULL
REMARK   3
REMARK   3  FIT IN THE HIGHEST RESOLUTION BIN.
REMARK   3   TOTAL NUMBER OF BINS USED           : 51
REMARK   3   BIN RESOLUTION RANGE HIGH       (A) : 1.44
REMARK   3   BIN RESOLUTION RANGE LOW        (A) : 1.52
REMARK   3   BIN COMPLETENESS (WORKING+TEST) (%) : 7.25
REMARK   3   REFLECTIONS IN BIN   (WORKING+TEST) : 640
REMARK   3   BIN R VALUE          (WORKING+TEST) : 0.2337
REMARK   3   REFLECTIONS IN BIN    (WORKING SET) : 608
REMARK   3   BIN R VALUE           (WORKING SET) : 0.2301
REMARK   3   BIN FREE R VALUE                    : 0.3054
REMARK   3   BIN FREE R VALUE TEST SET SIZE  (%) : 5.00
REMARK   3   BIN FREE R VALUE TEST SET COUNT     : 32
REMARK   3   ESTIMATED ERROR OF BIN FREE R VALUE : NULL
REMARK   3
REMARK   3  NUMBER OF NON-HYDROGEN ATOMS USED IN REFINEMENT.
REMARK   3   PROTEIN ATOMS            : 2519
REMARK   3   NUCLEIC ACID ATOMS       : 0
REMARK   3   HETEROGEN ATOMS          : 30
REMARK   3   SOLVENT ATOMS            : 377
REMARK   3
REMARK   3  B VALUES.
REMARK   3   FROM WILSON PLOT           (A**2) : 15.05
REMARK   3   MEAN B VALUE      (OVERALL, A**2) : 18.27
REMARK   3   OVERALL ANISOTROPIC B VALUE.
REMARK   3    B11 (A**2) : -2.06910
REMARK   3    B22 (A**2) : -2.06910
REMARK   3    B33 (A**2) : 4.13810
REMARK   3    B12 (A**2) : 0.00000
REMARK   3    B13 (A**2) : 0.00000
REMARK   3    B23 (A**2) : 0.00000
REMARK   3
REMARK   3  ESTIMATED COORDINATE ERROR.
REMARK   3   ESD FROM LUZZATI PLOT                    (A) : 0.20
REMARK   3   DPI (BLOW EQ-10) BASED ON R VALUE        (A) : 0.132
REMARK   3   DPI (BLOW EQ-9) BASED ON FREE R VALUE    (A) : 0.124
REMARK   3   DPI (CRUICKSHANK) BASED ON R VALUE       (A) : 0.122
REMARK   3   DPI (CRUICKSHANK) BASED ON FREE R VALUE  (A) : 0.119
REMARK   3
REMARK   3   REFERENCES: BLOW, D. (2002) ACTA CRYST D58, 792-797
REMARK   3               CRUICKSHANK, D.W.J. (1999) ACTA CRYST D55, 583-601
REMARK   3
REMARK   3  CORRELATION COEFFICIENTS.
REMARK   3   CORRELATION COEFFICIENT FO-FC      : 0.944
REMARK   3   CORRELATION COEFFICIENT FO-FC FREE : 0.926
REMARK   3
REMARK   3  X-RAY WEIGHT : 6.41
REMARK   3
REMARK   3  GEOMETRY FUNCTION.                                                  
REMARK   3   RESTRAINT LIBRARIES.                                               
REMARK   3    NUMBER OF LIBRARIES USED :   9                                    
REMARK   3    LIBRARY  1 : protgeo_eh99.dat (V1.6.4.20) 20220523  STANDARD      
REMARK   3                 AMINO ACID DICTIONARY. BONDS AND ANGLES FROM         
REMARK   3                 ENGH AND HUBER EH99. OTHER VALUES BASED ON           
REMARK   3                 PREVIOUS TNT OR TAKEN FROM CCP4. INCLUDES            
REMARK   3                 HYDROGEN ATOMS.                                      
REMARK   3    LIBRARY  2 : exoticaa.dat (V1.3.4.16) 20220523  COLLECTION        
REMARK   3                 OF NON-STANDARD AMINO ACIDS, MAINLY EH91             
REMARK   3                 WITHOUT IDEAL DISTANCE INFO                          
REMARK   3    LIBRARY  3 : nuclgeo.dat (V1.13.4.9) 20221011                     
REMARK   3    LIBRARY  4 : bcorrel.dat (V1.15.10.2) 20190616                    
REMARK   3    LIBRARY  5 : contact.dat (V1.15.12.10) 20191121                   
REMARK   3    LIBRARY  6 : idealdist_contact.dat (V1.3.4.13) 20220125           
REMARK   3                 IDEAL-DISTANCE CONTACT TERM DATA AS USED IN          
REMARK   3                 PROLSQ. VALUES USED HERE ARE BASED ON DATA           
REMARK   3                 HARVESTING OF PDB AS OF 20190109.                    
REMARK   3    LIBRARY  7 : restraints for LIG (unknown) from cif                
REMARK   3                 dictionary ASAP-0008351-001.cif; generated by        
REMARK   3                 GRADE 1.2.21 (Feb 03 2022) from SMILES               
REMARK   3                 O=C(O)[C@H]1C[C@@H](O)CN1c1ncnc2[nH]ccc12 using      
REMARK   3                 MOGUL 1.8.5(274361), CSD as541be, with quantum       
REMARK   3                 mechanics RM1                                        
REMARK   3    LIBRARY  8 : restraints for DMS (DIMETHYL SULFOXIDE) from         
REMARK   3                 cif dictionary DMS.cif; generated by grade2          
REMARK   3                 version 1.1.0a7 from                                 
REMARK   3                 PDB_chemical_components_definition_file              
REMARK   3                 ftp://ftp.ebi.ac.uk/pub/databases/msd/pdbechem_v     
REMARK   3                 2/D/DMS/DMS.cif using RDKit 2021.03.4                
REMARK   3                 ((DatabaseID PDB-DMS))                               
REMARK   3    LIBRARY  9 : assume.dat (V1.9.4.3) 20221011                       
REMARK   3                                                                      
REMARK   3   NUMBER OF GEOMETRIC FUNCTION TERMS DEFINED : 15                    
REMARK   3   TERM                          COUNT    WEIGHT   FUNCTION.          
REMARK   3    BOND LENGTHS              :   2637 ;   2.00 ;  HARMONIC           
REMARK   3    BOND ANGLES               :   3593 ;   2.00 ;  HARMONIC           
REMARK   3    TORSION ANGLES            :    902 ;   2.00 ;  SINUSOIDAL         
REMARK   3    TRIGONAL CARBON PLANES    :   NULL ;   NULL ;  NULL               
REMARK   3    GENERAL PLANES            :    469 ;   5.00 ;  HARMONIC           
REMARK   3    ISOTROPIC THERMAL FACTORS :   2637 ;  10.00 ;  HARMONIC           
REMARK   3    BAD NON-BONDED CONTACTS   :   NULL ;   NULL ;  NULL               
REMARK   3    IMPROPER TORSIONS         :   NULL ;   NULL ;  NULL               
REMARK   3    PSEUDOROTATION ANGLES     :   NULL ;   NULL ;  NULL               
REMARK   3    CHIRAL IMPROPER TORSION   :    340 ;   5.00 ;  SEMIHARMONIC       
REMARK   3    SUM OF OCCUPANCIES        :   NULL ;   NULL ;  NULL               
REMARK   3    UTILITY DISTANCES         :   NULL ;   NULL ;  NULL               
REMARK   3    UTILITY ANGLES            :   NULL ;   NULL ;  NULL               
REMARK   3    UTILITY TORSION           :   NULL ;   NULL ;  NULL               
REMARK   3    IDEAL-DIST CONTACT TERM   :   2573 ;   4.00 ;  SEMIHARMONIC       
REMARK   3                                                                      
REMARK   3   RMS DEVIATIONS FROM IDEAL VALUES.                                  
REMARK   3   BOND LENGTHS                       (A) : 0.011                     
REMARK   3   BOND ANGLES                  (DEGREES) : 1.10                      
REMARK   3   PEPTIDE OMEGA TORSION ANGLES (DEGREES) : 4.28                      
REMARK   3   OTHER TORSION ANGLES         (DEGREES) : 15.08                     
REMARK   3                                                                      
REMARK   3   SIMILARITY.                                                        
REMARK   3    NCS.                                                              
REMARK   3     NCS METHOD: RESTRAINT LSSR (-AUTONCS)                            
REMARK   3    TARGET RESTRAINTS.                                                
REMARK   3     TARGET REPRESENTATION : NONE                                     
REMARK   3     TARGET STRUCTURE : NULL                                          
REMARK   3                                                                      
REMARK   3  TLS DETAILS.                                                        
REMARK   3   NUMBER OF TLS GROUPS  :            2                               
REMARK   3                                                                      
REMARK   3   TLS GROUP :            1                                           
REMARK   3    SET : { A|* }                                                     
REMARK   3    ORIGIN FOR THE GROUP (A):    4.0445   21.4202   -0.4562           
REMARK   3    T TENSOR                                                          
REMARK   3     T11:   -0.0319 T22:   -0.0435                                    
REMARK   3     T33:    0.0467 T12:   -0.0016                                    
REMARK   3     T13:   -0.0251 T23:   -0.0007                                    
REMARK   3    L TENSOR                                                          
REMARK   3     L11:    0.6338 L22:    0.5637                                    
REMARK   3     L33:    0.0746 L12:    0.0603                                    
REMARK   3     L13:   -0.0219 L23:   -0.0978                                    
REMARK   3    S TENSOR                                                          
REMARK   3     S11:   -0.0003 S12:   -0.0161 S13:   -0.0341                     
REMARK   3     S21:    0.0189 S22:    0.0021 S23:   -0.0461                     
REMARK   3     S31:   -0.0143 S32:   -0.0103 S33:   -0.0017                     
REMARK   3                                                                      
REMARK   3   TLS GROUP :            2                                           
REMARK   3    SET : { B|* }                                                     
REMARK   3    ORIGIN FOR THE GROUP (A):   22.3326   43.2741   -7.7115           
REMARK   3    T TENSOR                                                          
REMARK   3     T11:   -0.0540 T22:   -0.0482                                    
REMARK   3     T33:    0.0407 T12:    0.0028                                    
REMARK   3     T13:   -0.0049 T23:   -0.0117                                    
REMARK   3    L TENSOR                                                          
REMARK   3     L11:    1.0980 L22:    1.2012                                    
REMARK   3     L33:    0.5072 L12:   -0.5010                                    
REMARK   3     L13:   -0.3626 L23:   -0.0343                                    
REMARK   3    S TENSOR                                                          
REMARK   3     S11:    0.0506 S12:   -0.0111 S13:    0.0065                     
REMARK   3     S21:   -0.0290 S22:   -0.0394 S23:   -0.0760                     
REMARK   3     S31:   -0.0287 S32:    0.0275 S33:   -0.0112                     
REMARK   3                                                                      
REMARK   3  REFINEMENT NOTES.                                                   
REMARK   3   NUMBER OF REFINEMENT NOTES :   1                                   
REMARK   3   NOTE   1 : IDEAL-DIST CONTACT TERM CONTACT SETUP. ALL ATOMS        
REMARK   3               HAVE CCP4 ATOM TYPE FROM LIBRARY                       
REMARK   3
REMARK   3  OTHER REFINEMENT REMARKS: NULL
REMARK   3
REMARK 290                                                            
REMARK 290 CRYSTALLOGRAPHIC SYMMETRY                                  
REMARK 290 SYMMETRY OPERATORS FOR SPACE GROUP: P 43                   
REMARK 290                                                            
REMARK 290      SYMOP   SYMMETRY                                      
REMARK 290     NNNMMM   OPERATOR                                      
REMARK 290       1555   X,Y,Z                                         
REMARK 290       2555   -X,-Y,1/2+Z                                   
REMARK 290       3555   -Y,X,3/4+Z                                    
REMARK 290       4555   Y,-X,1/4+Z                                    
REMARK 290                                                            
REMARK 290     WHERE NNN -> OPERATOR NUMBER                           
REMARK 290           MMM -> TRANSLATION VECTOR                        
REMARK 290                                                            
REMARK 290 CRYSTALLOGRAPHIC SYMMETRY TRANSFORMATIONS                  
REMARK 290 THE FOLLOWING TRANSFORMATIONS OPERATE ON THE ATOM/HETATM   
REMARK 290 RECORDS IN THIS ENTRY TO PRODUCE CRYSTALLOGRAPHICALLY      
REMARK 290 RELATED MOLECULES.                                         
REMARK 290   SMTRY1   1  1.000000  0.000000  0.000000        0.00000
REMARK 290   SMTRY2   1  0.000000  1.000000  0.000000        0.00000
REMARK 290   SMTRY3   1  0.000000  0.000000  1.000000        0.00000
REMARK 290   SMTRY1   2 -1.000000  0.000000  0.000000        0.00000
REMARK 290   SMTRY2   2  0.000000 -1.000000  0.000000        0.00000
REMARK 290   SMTRY3   2  0.000000  0.000000  1.000000       19.74100
REMARK 290   SMTRY1   3  0.000000 -1.000000  0.000000        0.00000
REMARK 290   SMTRY2   3  1.000000  0.000000  0.000000        0.00000
REMARK 290   SMTRY3   3  0.000000  0.000000  1.000000       29.61150
REMARK 290   SMTRY1   4  0.000000  1.000000  0.000000        0.00000
REMARK 290   SMTRY2   4 -1.000000  0.000000  0.000000        0.00000
REMARK 290   SMTRY3   4  0.000000  0.000000  1.000000        9.87050
REMARK 290                                                            
REMARK 290 REMARK: NULL                                               
REMARK 300
REMARK 300 BIOMOLECULE: 1, 2
REMARK 300 SEE REMARK 350 FOR THE AUTHOR PROVIDED AND/OR PROGRAM
REMARK 300 GENERATED ASSEMBLY INFORMATION FOR THE STRUCTURE IN
REMARK 300 THIS ENTRY. THE REMARK MAY ALSO  PROVIDE INFORMATION ON
REMARK 300 BURIED SURFACE AREA.
REMARK 350
REMARK 350 COORDINATES FOR A COMPLETE MULTIMER REPRESENTING THE KNOWN
REMARK 350 BIOLOGICALLY SIGNIFICANT OLIGOMERIZATION STATE OF THE
REMARK 350 MOLECULE CAN BE GENERATED BY APPLYING BIOMT TRANSFORMATIONS
REMARK 350 GIVEN BELOW. BOTH NON-CRYSTALLOGRAPHIC AND
REMARK 350 CRYSTALLOGRAPHIC OPERATIONS ARE GIVEN.
REMARK 350
REMARK 350 BIOMOLECULE: 1
REMARK 350 SOFTWARE DETERMINED QUATERNARY STRUCTURE: MONOMERIC
REMARK 350 SOFTWARE USED: PISA
REMARK 350 SURFACE AREA OF THE MONOMER: 7811 ANGSTROM**2
REMARK 350 FREE ENERGY OF FOLDING: -157.1 KCAL/MOL
REMARK 350 APPLY THE FOLLOWING TO CHAINS: A,W
REMARK 350   BIOMT1   1  1.000000  0.000000  0.000000        0.00000
REMARK 350   BIOMT2   1  0.000000  1.000000  0.000000        0.00000
REMARK 350   BIOMT3   1  0.000000  0.000000  1.000000        0.00000
REMARK 350
REMARK 350 BIOMOLECULE: 2
REMARK 350 SOFTWARE DETERMINED QUATERNARY STRUCTURE: MONOMERIC
REMARK 350 SOFTWARE USED: PISA
REMARK 350 SURFACE AREA OF THE MONOMER: 8126 ANGSTROM**2
REMARK 350 FREE ENERGY OF FOLDING: -159.4 KCAL/MOL
REMARK 350 APPLY THE FOLLOWING TO CHAINS: B,W
REMARK 350   BIOMT1   1  1.000000  0.000000  0.000000        0.00000
REMARK 350   BIOMT2   1  0.000000  1.000000  0.000000        0.00000
REMARK 350   BIOMT3   1  0.000000  0.000000  1.000000        0.00000
CRYST1   88.971   88.971   39.482  90.00  90.00  90.00 P 43                     


$$$$
SARS2_Mac1A-A1251
  PyMOL3.0          3D                             0

 18 20  0  0  0  0  0  0  0  0999 V2000
   -0.2570   11.6900   -5.4470 N   0  0  0  0  0  0  0  0  0  0  0  0
    0.6020   12.1610   -3.1880 C   0  0  0  0  0  0  0  0  0  0  0  0
    1.1290   12.8450   -2.3350 O   0  0  0  0  0  0  0  0  0  0  0  0
    0.4520   12.6480   -4.6200 C   0  0  0  0  0  0  0  0  0  0  0  0
    1.0990   11.9480   -7.2940 N   0  0  0  0  0  0  0  0  0  0  0  0
    0.0900   10.9710   -2.9630 O   0  0  0  0  0  0  0  0  0  0  0  0
   -0.2500   14.0110   -4.6520 C   0  0  0  0  0  0  0  0  0  0  0  0
    0.9340   10.4790   -9.1980 N   0  0  0  0  0  0  0  0  0  0  0  0
   -1.7100   13.9720   -4.2050 C   0  0  0  0  0  0  0  0  0  0  0  0
   -0.6140    8.6410   -8.9320 N   0  0  0  0  0  0  0  0  0  0  0  0
   -2.0350   14.0770   -2.7460 C   0  0  0  0  0  0  0  0  0  0  0  0
   -2.3580   15.2110   -3.6660 C   0  0  0  0  0  0  0  0  0  0  0  0
    0.1550   11.2410   -6.6390 C   0  0  0  0  0  0  0  0  0  0  0  0
    1.4170   11.5240   -8.5210 C   0  0  0  0  0  0  0  0  0  0  0  0
    0.0070    9.7860   -8.5170 C   0  0  0  0  0  0  0  0  0  0  0  0
   -1.4250    8.2040   -7.9100 C   0  0  0  0  0  0  0  0  0  0  0  0
   -1.3440    9.0500   -6.8520 C   0  0  0  0  0  0  0  0  0  0  0  0
   -0.4360   10.0820   -7.2230 C   0  0  0  0  0  0  0  0  0  0  0  0
  1 13  1  0  0  0  0
  2  4  1  0  0  0  0
  2  6  4  0  0  0  0
  2  3  4  0  0  0  0
  1  4  1  0  0  0  0
  4  7  1  0  0  0  0
  7  9  1  0  0  0  0
  8 14  4  0  0  0  0
  9 11  1  0  0  0  0
  9 12  1  0  0  0  0
 10 15  4  0  0  0  0
 11 12  1  0  0  0  0
  5 13  4  0  0  0  0
 13 18  4  0  0  0  0
  5 14  4  0  0  0  0
  8 15  4  0  0  0  0
 10 16  4  0  0  0  0
 16 17  4  0  0  0  0
 15 18  4  0  0  0  0
 17 18  4  0  0  0  0
M  END
>  <pdb_header>
REMARK --------------------- added by autoBUSTER ---------------------------------START
REMARK run at   = Wed Apr 19 14:25:13 BST 2023
REMARK     in   = /dls/labxchem/data/lb32627/lb32627-1/processing/analysis/model_building/SARS2_Mac1A-A1251
REMARK     user = dcn76311
REMARK     cmd  = \
REMARK            /dls_sw/apps/GPhL/BUSTER/20230217/autoBUSTER/bin/linux64/refine \
REMARK            -p \
REMARK            /dls/labxchem/data/lb32627/lb32627-1/processing/analysis/model_building/SARS2_Mac1A-A1251/cootOut/Refine_12/in.pdb \
REMARK            -m \
REMARK            /dls/labxchem/data/lb32627/lb32627-1/processing/analysis/model_building/SARS2_Mac1A-A1251/SARS2_Mac1A-A1251.free.mtz \
REMARK            -l \
REMARK            /dls/labxchem/data/lb32627/lb32627-1/processing/analysis/model_building/SARS2_Mac1A-A1251/ASAP-0008379-001.cif \
REMARK            -autoncs -M TLSbasic -d Refine_12
REMARK Files used:
REMARK   PDB              = Refine_12/pdbchk.pdb
REMARK   MTZ              = /dls/labxchem/data/lb32627/lb32627-1/processing/analysis/model_building/SARS2_Mac1A-A1251/SARS2_Mac1A-A1251.free.mtz
REMARK output written to subdirectory = Refine_12
REMARK best refinement for F,SIGF with R/Rfree 0.2019/0.2425
REMARK header records are copied from input PDB file (apart from REMARK 3!)
REMARK --------------------- added by autoBUSTER -----------------------------------END
REMARK --------------------- added by autoBUSTER -------------------------------
REMARK run at   = Thu Apr 13 08:15:13 BST 2023                                  
REMARK     in   = /dls/labxchem/data/lb32627/lb32627-1/processing/analysis/model
REMARK     user = dcn76311                                                      
REMARK     cmd  = \                                                             
REMARK            /dls_sw/apps/GPhL/BUSTER/20230217/autoBUSTER/bin/linux64/refin
REMARK            -p \                                                          
REMARK            /dls/labxchem/data/lb32627/lb32627-1/processing/analysis/model
REMARK            -m \                                                          
REMARK            /dls/labxchem/data/lb32627/lb32627-1/processing/analysis/model
REMARK            -l \                                                          
REMARK            /dls/labxchem/data/lb32627/lb32627-1/processing/analysis/model
REMARK            -autoncs -M TLSbasic -d Refine_11                             
REMARK Files used:                                                              
REMARK   PDB              = Refine_11/pdbchk.pdb                                
REMARK   MTZ              = /dls/labxchem/data/lb32627/lb32627-1/processing/anal
REMARK output written to subdirectory = Refine_11                               
REMARK best refinement for F,SIGF with R/Rfree 0.2022/0.2424                    
REMARK header records are copied from input PDB file (apart from REMARK 3!)     
REMARK --------------------- added by autoBUSTER -------------------------------
REMARK --------------------- added by autoBUSTER -------------------------------
REMARK run at   = Thu Apr 13 07:57:35 BST 2023                                  
REMARK     in   = /dls/labxchem/data/lb32627/lb32627-1/processing/analysis/model
REMARK     user = dcn76311                                                      
REMARK     cmd  = \                                                             
REMARK            /dls_sw/apps/GPhL/BUSTER/20230217/autoBUSTER/bin/linux64/refin
REMARK            -p \                                                          
REMARK            /dls/labxchem/data/lb32627/lb32627-1/processing/analysis/model
REMARK            -m \                                                          
REMARK            /dls/labxchem/data/lb32627/lb32627-1/processing/analysis/model
REMARK            -l \                                                          
REMARK            /dls/labxchem/data/lb32627/lb32627-1/processing/analysis/model
REMARK            -autoncs -M TLSbasic -d Refine_10                             
REMARK Files used:                                                              
REMARK   PDB              = Refine_10/pdbchk.pdb                                
REMARK   MTZ              = /dls/labxchem/data/lb32627/lb32627-1/processing/anal
REMARK output written to subdirectory = Refine_10                               
REMARK best refinement for F,SIGF with R/Rfree 0.2022/0.2421                    
REMARK header records are copied from input PDB file (apart from REMARK 3!)     
REMARK --------------------- added by autoBUSTER -------------------------------
REMARK --------------------- added by autoBUSTER -------------------------------
REMARK run at   = Tue Apr 11 10:28:25 BST 2023                                  
REMARK     in   = /dls/labxchem/data/lb32627/lb32627-1/processing/analysis/model
REMARK     user = dcn76311                                                      
REMARK     cmd  = \                                                             
REMARK            /dls_sw/apps/GPhL/BUSTER/20230217/autoBUSTER/bin/linux64/refin
REMARK            -p \                                                          
REMARK            /dls/labxchem/data/lb32627/lb32627-1/processing/analysis/model
REMARK            -m \                                                          
REMARK            /dls/labxchem/data/lb32627/lb32627-1/processing/analysis/model
REMARK            -l \                                                          
REMARK            /dls/labxchem/data/lb32627/lb32627-1/processing/analysis/model
REMARK            -autoncs -M TLSbasic -B user -Gelly gelly.dat -d Refine_9     
REMARK Files used:                                                              
REMARK   PDB              = Refine_9/pdbchk.pdb                                 
REMARK   MTZ              = /dls/labxchem/data/lb32627/lb32627-1/processing/anal
REMARK   Gelly commands       = /dls/labxchem/data/lb32627/lb32627-1/processing/
REMARK output written to subdirectory = Refine_9                                
REMARK best refinement for F,SIGF with R/Rfree 0.2025/0.2417                    
REMARK header records are copied from input PDB file (apart from REMARK 3!)     
REMARK --------------------- added by autoBUSTER -------------------------------
REMARK --------------------- added by autoBUSTER -------------------------------
REMARK run at   = Wed Apr  5 11:19:52 BST 2023                                  
REMARK     in   = /dls/labxchem/data/lb32627/lb32627-1/processing/analysis/model
REMARK     user = dcn76311                                                      
REMARK     cmd  = \                                                             
REMARK            /dls_sw/apps/GPhL/BUSTER/20230217/autoBUSTER/bin/linux64/refin
REMARK            -p \                                                          
REMARK            /dls/labxchem/data/lb32627/lb32627-1/processing/analysis/model
REMARK            -m \                                                          
REMARK            /dls/labxchem/data/lb32627/lb32627-1/processing/analysis/model
REMARK            -l \                                                          
REMARK            /dls/labxchem/data/lb32627/lb32627-1/processing/analysis/model
REMARK            -autoncs -M TLSbasic -d Refine_8                              
REMARK Files used:                                                              
REMARK   PDB              = Refine_8/pdbchk.pdb                                 
REMARK   MTZ              = /dls/labxchem/data/lb32627/lb32627-1/processing/anal
REMARK output written to subdirectory = Refine_8                                
REMARK best refinement for F,SIGF with R/Rfree 0.2025/0.2418                    
REMARK header records are copied from input PDB file (apart from REMARK 3!)     
REMARK --------------------- added by autoBUSTER -------------------------------
REMARK --------------------- added by autoBUSTER -------------------------------
REMARK run at   = Tue Apr  4 13:23:55 BST 2023                                  
REMARK     in   = /dls/labxchem/data/lb32627/lb32627-1/processing/analysis/model
REMARK     user = dcn76311                                                      
REMARK     cmd  = \                                                             
REMARK            /dls_sw/apps/GPhL/BUSTER/20230217/autoBUSTER/bin/linux64/refin
REMARK            -p \                                                          
REMARK            /dls/labxchem/data/lb32627/lb32627-1/processing/analysis/model
REMARK            -m \                                                          
REMARK            /dls/labxchem/data/lb32627/lb32627-1/processing/analysis/model
REMARK            -l \                                                          
REMARK            /dls/labxchem/data/lb32627/lb32627-1/processing/analysis/model
REMARK            -autoncs -M TLSbasic -d Refine_7                              
REMARK Files used:                                                              
REMARK   PDB              = Refine_7/pdbchk.pdb                                 
REMARK   MTZ              = /dls/labxchem/data/lb32627/lb32627-1/processing/anal
REMARK output written to subdirectory = Refine_7                                
REMARK best refinement for F,SIGF with R/Rfree 0.2024/0.2422                    
REMARK header records are copied from input PDB file (apart from REMARK 3!)     
REMARK --------------------- added by autoBUSTER -------------------------------
REMARK --------------------- added by autoBUSTER -------------------------------
REMARK run at   = Tue Apr  4 09:08:10 BST 2023                                  
REMARK     in   = /dls/labxchem/data/lb32627/lb32627-1/processing/analysis/model
REMARK     user = dcn76311                                                      
REMARK     cmd  = \                                                             
REMARK            /dls_sw/apps/GPhL/BUSTER/20230217/autoBUSTER/bin/linux64/refin
REMARK            -p \                                                          
REMARK            /dls/labxchem/data/lb32627/lb32627-1/processing/analysis/model
REMARK            -m \                                                          
REMARK            /dls/labxchem/data/lb32627/lb32627-1/processing/analysis/model
REMARK            -l \                                                          
REMARK            /dls/labxchem/data/lb32627/lb32627-1/processing/analysis/model
REMARK            -autoncs -M TLSbasic -d Refine_6                              
REMARK Files used:                                                              
REMARK   PDB              = Refine_6/pdbchk.pdb                                 
REMARK   MTZ              = /dls/labxchem/data/lb32627/lb32627-1/processing/anal
REMARK output written to subdirectory = Refine_6                                
REMARK best refinement for F,SIGF with R/Rfree 0.2026/0.2405                    
REMARK header records are copied from input PDB file (apart from REMARK 3!)     
REMARK --------------------- added by autoBUSTER -------------------------------
REMARK --------------------- added by autoBUSTER -------------------------------
REMARK run at   = Tue Apr  4 08:32:56 BST 2023                                  
REMARK     in   = /dls/labxchem/data/lb32627/lb32627-1/processing/analysis/model
REMARK     user = dcn76311                                                      
REMARK     cmd  = \                                                             
REMARK            /dls_sw/apps/GPhL/BUSTER/20230217/autoBUSTER/bin/linux64/refin
REMARK            -p \                                                          
REMARK            /dls/labxchem/data/lb32627/lb32627-1/processing/analysis/model
REMARK            -m \                                                          
REMARK            /dls/labxchem/data/lb32627/lb32627-1/processing/analysis/model
REMARK            -l \                                                          
REMARK            /dls/labxchem/data/lb32627/lb32627-1/processing/analysis/model
REMARK            -autoncs -M TLSbasic -d Refine_5                              
REMARK Files used:                                                              
REMARK   PDB              = Refine_5/pdbchk.pdb                                 
REMARK   MTZ              = /dls/labxchem/data/lb32627/lb32627-1/processing/anal
REMARK output written to subdirectory = Refine_5                                
REMARK best refinement for F,SIGF with R/Rfree 0.2026/0.2413                    
REMARK header records are copied from input PDB file (apart from REMARK 3!)     
REMARK --------------------- added by autoBUSTER -------------------------------
REMARK --------------------- added by autoBUSTER -------------------------------
REMARK run at   = Thu Mar 16 13:42:28 GMT 2023                                  
REMARK     in   = /dls/labxchem/data/lb32627/lb32627-1/processing/analysis/model
REMARK     user = dcn76311                                                      
REMARK     cmd  = \                                                             
REMARK            /dls_sw/apps/GPhL/BUSTER/20221121/autoBUSTER/bin/linux64/refin
REMARK            -p \                                                          
REMARK            /dls/labxchem/data/lb32627/lb32627-1/processing/analysis/model
REMARK            -m \                                                          
REMARK            /dls/labxchem/data/lb32627/lb32627-1/processing/analysis/model
REMARK            -l \                                                          
REMARK            /dls/labxchem/data/lb32627/lb32627-1/processing/analysis/model
REMARK            -autoncs -M TLSbasic -d Refine_4                              
REMARK Files used:                                                              
REMARK   PDB              = Refine_4/pdbchk.pdb                                 
REMARK   MTZ              = /dls/labxchem/data/lb32627/lb32627-1/processing/anal
REMARK output written to subdirectory = Refine_4                                
REMARK best refinement for F,SIGF with R/Rfree 0.2041/0.2417                    
REMARK header records are copied from input PDB file (apart from REMARK 3!)     
REMARK --------------------- added by autoBUSTER -------------------------------
REMARK --------------------- added by autoBUSTER -------------------------------
REMARK run at   = Thu Mar 16 13:20:41 GMT 2023                                  
REMARK     in   = /dls/labxchem/data/lb32627/lb32627-1/processing/analysis/model
REMARK     user = dcn76311                                                      
REMARK     cmd  = \                                                             
REMARK            /dls_sw/apps/GPhL/BUSTER/20221121/autoBUSTER/bin/linux64/refin
REMARK            -p \                                                          
REMARK            /dls/labxchem/data/lb32627/lb32627-1/processing/analysis/model
REMARK            -m \                                                          
REMARK            /dls/labxchem/data/lb32627/lb32627-1/processing/analysis/model
REMARK            -l \                                                          
REMARK            /dls/labxchem/data/lb32627/lb32627-1/processing/analysis/model
REMARK            -autoncs -M TLSbasic -d Refine_3                              
REMARK Files used:                                                              
REMARK   PDB              = Refine_3/pdbchk.pdb                                 
REMARK   MTZ              = /dls/labxchem/data/lb32627/lb32627-1/processing/anal
REMARK output written to subdirectory = Refine_3                                
REMARK best refinement for F,SIGF with R/Rfree 0.2040/0.2422                    
REMARK header records are copied from input PDB file (apart from REMARK 3!)     
REMARK --------------------- added by autoBUSTER -------------------------------
REMARK --------------------- added by autoBUSTER -------------------------------
REMARK run at   = Mon Mar 13 13:05:15 GMT 2023                                  
REMARK     in   = /dls/labxchem/data/lb32627/lb32627-1/processing/analysis/model
REMARK     user = dcn76311                                                      
REMARK     cmd  = \                                                             
REMARK            /dls_sw/apps/GPhL/BUSTER/20221121/autoBUSTER/bin/linux64/refin
REMARK            -p \                                                          
REMARK            /dls/labxchem/data/lb32627/lb32627-1/processing/analysis/model
REMARK            -m \                                                          
REMARK            /dls/labxchem/data/lb32627/lb32627-1/processing/analysis/model
REMARK            -l \                                                          
REMARK            /dls/labxchem/data/lb32627/lb32627-1/processing/analysis/model
REMARK            -autoncs -M TLSbasic -d Refine_2                              
REMARK Files used:                                                              
REMARK   PDB              = Refine_2/pdbchk.pdb                                 
REMARK   MTZ              = /dls/labxchem/data/lb32627/lb32627-1/processing/anal
REMARK output written to subdirectory = Refine_2                                
REMARK best refinement for F,SIGF with R/Rfree 0.2045/0.2433                    
REMARK header records are copied from input PDB file (apart from REMARK 3!)     
REMARK --------------------- added by autoBUSTER -------------------------------
REMARK --------------------- added by autoBUSTER -------------------------------
REMARK run at   = Fri Mar 10 14:54:18 GMT 2023                                  
REMARK     in   = /dls/labxchem/data/lb32627/lb32627-1/processing/analysis/model
REMARK     user = dcn76311                                                      
REMARK     cmd  = \                                                             
REMARK            /dls_sw/apps/GPhL/BUSTER/20221121/autoBUSTER/bin/linux64/refin
REMARK            -p \                                                          
REMARK            /dls/labxchem/data/lb32627/lb32627-1/processing/analysis/model
REMARK            -m \                                                          
REMARK            /dls/labxchem/data/lb32627/lb32627-1/processing/analysis/model
REMARK            -l \                                                          
REMARK            /dls/labxchem/data/lb32627/lb32627-1/processing/analysis/model
REMARK            -autoncs -M TLSbasic -d Refine_1                              
REMARK Files used:                                                              
REMARK   PDB              = Refine_1/pdbchk.pdb                                 
REMARK   MTZ              = /dls/labxchem/data/lb32627/lb32627-1/processing/anal
REMARK output written to subdirectory = Refine_1                                
REMARK best refinement for F,SIGF with R/Rfree 0.2045/0.2515                    
REMARK header records are copied from input PDB file (apart from REMARK 3!)     
REMARK --------------------- added by autoBUSTER -------------------------------
HEADER    ----                                    18-MAY-20                     
TITLE     ---                                                                   
COMPND    ---                                                                   
EXPDTA    X-RAY DIFFRACTION
REMARK   2                                                            
REMARK   2 RESOLUTION.    1.43 ANGSTROMS.
REMARK   3
REMARK   3 REFINEMENT.
REMARK   3   PROGRAM     : BUSTER 2.10.4 (17-FEB-2023)
REMARK   3   AUTHORS     : BRICOGNE,BLANC,BRANDL,FLENSBURG,KELLER,
REMARK   3               : PACIOREK,ROVERSI,SHARFF,SMART,VONRHEIN,WOMACK;
REMARK   3               : MATTHEWS,TEN EYCK,TRONRUD
REMARK   3
REMARK   3  DATA USED IN REFINEMENT.
REMARK   3   RESOLUTION RANGE HIGH (ANGSTROMS) : 1.433
REMARK   3   RESOLUTION RANGE LOW  (ANGSTROMS) : 88.96
REMARK   3   DATA CUTOFF            (SIGMA(F)) : 0.000
REMARK   3   COMPLETENESS FOR RANGE        (%) : 84.4
REMARK   3   NUMBER OF REFLECTIONS             : 48229
REMARK   3
REMARK   3  FIT TO DATA USED IN REFINEMENT.
REMARK   3   CROSS-VALIDATION METHOD          : THROUGHOUT
REMARK   3   FREE R VALUE TEST SET SELECTION  : RANDOM
REMARK   3   R VALUE     (WORKING + TEST SET) : 0.2039
REMARK   3   R VALUE            (WORKING SET) : 0.2019
REMARK   3   FREE R VALUE                     : 0.2425
REMARK   3   FREE R VALUE TEST SET SIZE   (%) : 4.930
REMARK   3   FREE R VALUE TEST SET COUNT      : 2376
REMARK   3   ESTIMATED ERROR OF FREE R VALUE  : NULL
REMARK   3
REMARK   3  FIT IN THE HIGHEST RESOLUTION BIN.
REMARK   3   TOTAL NUMBER OF BINS USED           : 51
REMARK   3   BIN RESOLUTION RANGE HIGH       (A) : 1.43
REMARK   3   BIN RESOLUTION RANGE LOW        (A) : 1.51
REMARK   3   BIN COMPLETENESS (WORKING+TEST) (%) : 11.62
REMARK   3   REFLECTIONS IN BIN   (WORKING+TEST) : 965
REMARK   3   BIN R VALUE          (WORKING+TEST) : 0.3790
REMARK   3   REFLECTIONS IN BIN    (WORKING SET) : 904
REMARK   3   BIN R VALUE           (WORKING SET) : 0.3829
REMARK   3   BIN FREE R VALUE                    : 0.3228
REMARK   3   BIN FREE R VALUE TEST SET SIZE  (%) : 6.32
REMARK   3   BIN FREE R VALUE TEST SET COUNT     : 61
REMARK   3   ESTIMATED ERROR OF BIN FREE R VALUE : NULL
REMARK   3
REMARK   3  NUMBER OF NON-HYDROGEN ATOMS USED IN REFINEMENT.
REMARK   3   PROTEIN ATOMS            : 2519
REMARK   3   NUCLEIC ACID ATOMS       : 0
REMARK   3   HETEROGEN ATOMS          : 26
REMARK   3   SOLVENT ATOMS            : 389
REMARK   3
REMARK   3  B VALUES.
REMARK   3   FROM WILSON PLOT           (A**2) : 22.80
REMARK   3   MEAN B VALUE      (OVERALL, A**2) : 27.58
REMARK   3   OVERALL ANISOTROPIC B VALUE.
REMARK   3    B11 (A**2) : 0.33610
REMARK   3    B22 (A**2) : 0.33610
REMARK   3    B33 (A**2) : -0.67230
REMARK   3    B12 (A**2) : 0.00000
REMARK   3    B13 (A**2) : 0.00000
REMARK   3    B23 (A**2) : 0.00000
REMARK   3
REMARK   3  ESTIMATED COORDINATE ERROR.
REMARK   3   ESD FROM LUZZATI PLOT                    (A) : 0.24
REMARK   3   DPI (BLOW EQ-10) BASED ON R VALUE        (A) : 0.094
REMARK   3   DPI (BLOW EQ-9) BASED ON FREE R VALUE    (A) : 0.095
REMARK   3   DPI (CRUICKSHANK) BASED ON R VALUE       (A) : 0.088
REMARK   3   DPI (CRUICKSHANK) BASED ON FREE R VALUE  (A) : 0.091
REMARK   3
REMARK   3   REFERENCES: BLOW, D. (2002) ACTA CRYST D58, 792-797
REMARK   3               CRUICKSHANK, D.W.J. (1999) ACTA CRYST D55, 583-601
REMARK   3
REMARK   3  CORRELATION COEFFICIENTS.
REMARK   3   CORRELATION COEFFICIENT FO-FC      : 0.967
REMARK   3   CORRELATION COEFFICIENT FO-FC FREE : 0.953
REMARK   3
REMARK   3  X-RAY WEIGHT : 7.23
REMARK   3
REMARK   3  GEOMETRY FUNCTION.                                                  
REMARK   3   RESTRAINT LIBRARIES.                                               
REMARK   3    NUMBER OF LIBRARIES USED :   9                                    
REMARK   3    LIBRARY  1 : protgeo_eh99.dat (V1.6.4.20) 20220523  STANDARD      
REMARK   3                 AMINO ACID DICTIONARY. BONDS AND ANGLES FROM         
REMARK   3                 ENGH AND HUBER EH99. OTHER VALUES BASED ON           
REMARK   3                 PREVIOUS TNT OR TAKEN FROM CCP4. INCLUDES            
REMARK   3                 HYDROGEN ATOMS.                                      
REMARK   3    LIBRARY  2 : exoticaa.dat (V1.3.4.16) 20220523  COLLECTION        
REMARK   3                 OF NON-STANDARD AMINO ACIDS, MAINLY EH91             
REMARK   3                 WITHOUT IDEAL DISTANCE INFO                          
REMARK   3    LIBRARY  3 : nuclgeo.dat (V1.13.4.9) 20221011                     
REMARK   3    LIBRARY  4 : bcorrel.dat (V1.15.10.2) 20190616                    
REMARK   3    LIBRARY  5 : contact.dat (V1.15.12.10) 20191121                   
REMARK   3    LIBRARY  6 : idealdist_contact.dat (V1.3.4.13) 20220125           
REMARK   3                 IDEAL-DISTANCE CONTACT TERM DATA AS USED IN          
REMARK   3                 PROLSQ. VALUES USED HERE ARE BASED ON DATA           
REMARK   3                 HARVESTING OF PDB AS OF 20190109.                    
REMARK   3    LIBRARY  7 : restraints for LIG (unknown) from cif                
REMARK   3                 dictionary ASAP-0008379-001.cif; generated by        
REMARK   3                 GRADE 1.2.21 (Feb 03 2022) from SMILES               
REMARK   3                 O=C(O)[C@H](CC1CC1)Nc1ncnc2[nH]ccc12 using           
REMARK   3                 MOGUL 1.8.5(274361), CSD as541be, with quantum       
REMARK   3                 mechanics RM1                                        
REMARK   3    LIBRARY  8 : restraints for DMS (DIMETHYL SULFOXIDE) from         
REMARK   3                 cif dictionary DMS.cif; generated by grade2          
REMARK   3                 version 1.1.0a7 from                                 
REMARK   3                 PDB_chemical_components_definition_file              
REMARK   3                 ftp://ftp.ebi.ac.uk/pub/databases/msd/pdbechem_v     
REMARK   3                 2/D/DMS/DMS.cif using RDKit 2021.03.4                
REMARK   3                 ((DatabaseID PDB-DMS))                               
REMARK   3    LIBRARY  9 : assume.dat (V1.9.4.3) 20221011                       
REMARK   3                                                                      
REMARK   3   NUMBER OF GEOMETRIC FUNCTION TERMS DEFINED : 15                    
REMARK   3   TERM                          COUNT    WEIGHT   FUNCTION.          
REMARK   3    BOND LENGTHS              :   2645 ;   2.00 ;  HARMONIC           
REMARK   3    BOND ANGLES               :   3605 ;   2.00 ;  HARMONIC           
REMARK   3    TORSION ANGLES            :    906 ;   2.00 ;  SINUSOIDAL         
REMARK   3    TRIGONAL CARBON PLANES    :   NULL ;   NULL ;  NULL               
REMARK   3    GENERAL PLANES            :    471 ;   5.00 ;  HARMONIC           
REMARK   3    ISOTROPIC THERMAL FACTORS :   2645 ;  10.00 ;  HARMONIC           
REMARK   3    BAD NON-BONDED CONTACTS   :   NULL ;   NULL ;  NULL               
REMARK   3    IMPROPER TORSIONS         :   NULL ;   NULL ;  NULL               
REMARK   3    PSEUDOROTATION ANGLES     :   NULL ;   NULL ;  NULL               
REMARK   3    CHIRAL IMPROPER TORSION   :    340 ;   5.00 ;  SEMIHARMONIC       
REMARK   3    SUM OF OCCUPANCIES        :   NULL ;   NULL ;  NULL               
REMARK   3    UTILITY DISTANCES         :   NULL ;   NULL ;  NULL               
REMARK   3    UTILITY ANGLES            :   NULL ;   NULL ;  NULL               
REMARK   3    UTILITY TORSION           :   NULL ;   NULL ;  NULL               
REMARK   3    IDEAL-DIST CONTACT TERM   :   2625 ;   4.00 ;  SEMIHARMONIC       
REMARK   3                                                                      
REMARK   3   RMS DEVIATIONS FROM IDEAL VALUES.                                  
REMARK   3   BOND LENGTHS                       (A) : 0.011                     
REMARK   3   BOND ANGLES                  (DEGREES) : 1.04                      
REMARK   3   PEPTIDE OMEGA TORSION ANGLES (DEGREES) : 3.86                      
REMARK   3   OTHER TORSION ANGLES         (DEGREES) : 14.98                     
REMARK   3                                                                      
REMARK   3   SIMILARITY.                                                        
REMARK   3    NCS.                                                              
REMARK   3     NCS METHOD: RESTRAINT LSSR (-AUTONCS)                            
REMARK   3    TARGET RESTRAINTS.                                                
REMARK   3     TARGET REPRESENTATION : NONE                                     
REMARK   3     TARGET STRUCTURE : NULL                                          
REMARK   3                                                                      
REMARK   3  TLS DETAILS.                                                        
REMARK   3   NUMBER OF TLS GROUPS  :            2                               
REMARK   3                                                                      
REMARK   3   TLS GROUP :            1                                           
REMARK   3    SET : { A|* }                                                     
REMARK   3    ORIGIN FOR THE GROUP (A):    3.9162   21.5104   -0.4600           
REMARK   3    T TENSOR                                                          
REMARK   3     T11:   -0.0352 T22:   -0.0337                                    
REMARK   3     T33:    0.0233 T12:   -0.0019                                    
REMARK   3     T13:   -0.0250 T23:    0.0063                                    
REMARK   3    L TENSOR                                                          
REMARK   3     L11:    0.6322 L22:    1.2482                                    
REMARK   3     L33:    0.0759 L12:   -0.0622                                    
REMARK   3     L13:   -0.1160 L23:   -0.1059                                    
REMARK   3    S TENSOR                                                          
REMARK   3     S11:    0.0010 S12:   -0.0285 S13:   -0.0237                     
REMARK   3     S21:    0.0083 S22:   -0.0037 S23:   -0.0525                     
REMARK   3     S31:    0.0018 S32:   -0.0106 S33:    0.0027                     
REMARK   3                                                                      
REMARK   3   TLS GROUP :            2                                           
REMARK   3    SET : { B|* }                                                     
REMARK   3    ORIGIN FOR THE GROUP (A):   22.3915   43.1771   -7.7500           
REMARK   3    T TENSOR                                                          
REMARK   3     T11:   -0.0647 T22:   -0.0536                                    
REMARK   3     T33:    0.0415 T12:    0.0002                                    
REMARK   3     T13:   -0.0031 T23:    0.0021                                    
REMARK   3    L TENSOR                                                          
REMARK   3     L11:    1.4980 L22:    1.4315                                    
REMARK   3     L33:    0.3524 L12:   -0.4130                                    
REMARK   3     L13:   -0.4255 L23:    0.1575                                    
REMARK   3    S TENSOR                                                          
REMARK   3     S11:    0.0364 S12:   -0.0071 S13:   -0.0238                     
REMARK   3     S21:   -0.0118 S22:   -0.0364 S23:   -0.1276                     
REMARK   3     S31:   -0.0459 S32:    0.0125 S33:   -0.0000                     
REMARK   3                                                                      
REMARK   3  REFINEMENT NOTES.                                                   
REMARK   3   NUMBER OF REFINEMENT NOTES :   1                                   
REMARK   3   NOTE   1 : IDEAL-DIST CONTACT TERM CONTACT SETUP. ALL ATOMS        
REMARK   3               HAVE CCP4 ATOM TYPE FROM LIBRARY                       
REMARK   3
REMARK   3  OTHER REFINEMENT REMARKS: NULL
REMARK   3
REMARK 290                                                            
REMARK 290 CRYSTALLOGRAPHIC SYMMETRY                                  
REMARK 290 SYMMETRY OPERATORS FOR SPACE GROUP: P 43                   
REMARK 290                                                            
REMARK 290      SYMOP   SYMMETRY                                      
REMARK 290     NNNMMM   OPERATOR                                      
REMARK 290       1555   X,Y,Z                                         
REMARK 290       2555   -X,-Y,1/2+Z                                   
REMARK 290       3555   -Y,X,3/4+Z                                    
REMARK 290       4555   Y,-X,1/4+Z                                    
REMARK 290                                                            
REMARK 290     WHERE NNN -> OPERATOR NUMBER                           
REMARK 290           MMM -> TRANSLATION VECTOR                        
REMARK 290                                                            
REMARK 290 CRYSTALLOGRAPHIC SYMMETRY TRANSFORMATIONS                  
REMARK 290 THE FOLLOWING TRANSFORMATIONS OPERATE ON THE ATOM/HETATM   
REMARK 290 RECORDS IN THIS ENTRY TO PRODUCE CRYSTALLOGRAPHICALLY      
REMARK 290 RELATED MOLECULES.                                         
REMARK 290   SMTRY1   1  1.000000  0.000000  0.000000        0.00000
REMARK 290   SMTRY2   1  0.000000  1.000000  0.000000        0.00000
REMARK 290   SMTRY3   1  0.000000  0.000000  1.000000        0.00000
REMARK 290   SMTRY1   2 -1.000000  0.000000  0.000000        0.00000
REMARK 290   SMTRY2   2  0.000000 -1.000000  0.000000        0.00000
REMARK 290   SMTRY3   2  0.000000  0.000000  1.000000       19.74800
REMARK 290   SMTRY1   3  0.000000 -1.000000  0.000000        0.00000
REMARK 290   SMTRY2   3  1.000000  0.000000  0.000000        0.00000
REMARK 290   SMTRY3   3  0.000000  0.000000  1.000000       29.62200
REMARK 290   SMTRY1   4  0.000000  1.000000  0.000000        0.00000
REMARK 290   SMTRY2   4 -1.000000  0.000000  0.000000        0.00000
REMARK 290   SMTRY3   4  0.000000  0.000000  1.000000        9.87400
REMARK 290                                                            
REMARK 290 REMARK: NULL                                               
CRYST1   88.958   88.958   39.496  90.00  90.00  90.00 P 43           


$$$$
SARS2_Mac1A-A1381
  PyMOL3.0          3D                             0

 27 30  0  0  0  0  0  0  0  0999 V2000
    0.4390   11.7200   -4.5640 N   0  0  0  0  0  0  0  0  0  0  0  0
   -0.8920   20.5510   -7.6710 C   0  0  0  0  0  0  0  0  0  0  0  0
    0.2630   19.9630   -7.0610 O   0  0  0  0  0  0  0  0  0  0  0  0
    0.1030   18.7820   -6.3730 C   0  0  0  0  0  0  0  0  0  0  0  0
    0.3270   10.7900   -3.5800 N   0  0  0  0  0  0  0  0  0  0  0  0
   -2.3500   15.0680   -2.9800 O   0  0  0  0  0  0  0  0  0  0  0  0
   -0.9870   17.9320   -6.5180 C   0  0  0  0  0  0  0  0  0  0  0  0
    0.8800   11.2100   -2.4900 N   0  0  0  0  0  0  0  0  0  0  0  0
   -0.9800   16.6950   -5.8970 C   0  0  0  0  0  0  0  0  0  0  0  0
    1.3750   12.4320   -2.7690 N   0  0  0  0  0  0  0  0  0  0  0  0
    0.0880   16.2950   -5.1060 C   0  0  0  0  0  0  0  0  0  0  0  0
   -0.0960   15.1310   -2.9330 N   0  0  0  0  0  0  0  0  0  0  0  0
    0.0590   14.9640   -4.3770 C   0  0  0  0  0  0  0  0  0  0  0  0
   -0.1080   14.9090   -0.2140 N   0  0  0  0  0  0  0  0  0  0  0  0
    1.2980   14.0870   -4.6550 C   0  0  0  0  0  0  0  0  0  0  0  0
   -1.1450   14.9670    1.9560 N   0  0  0  0  0  0  0  0  0  0  0  0
    1.0840   12.7450   -4.0310 C   0  0  0  0  0  0  0  0  0  0  0  0
   -3.5470   15.2590    1.8900 N   0  0  0  0  0  0  0  0  0  0  0  0
   -1.2990   15.0790   -2.3420 C   0  0  0  0  0  0  0  0  0  0  0  0
   -1.2930   15.0710   -0.8320 C   0  0  0  0  0  0  0  0  0  0  0  0
   -0.1080   14.8810    1.1220 C   0  0  0  0  0  0  0  0  0  0  0  0
   -2.3120   15.1390    1.3090 C   0  0  0  0  0  0  0  0  0  0  0  0
   -4.4740   15.4390    0.8900 C   0  0  0  0  0  0  0  0  0  0  0  0
   -3.8680   15.4260   -0.3250 C   0  0  0  0  0  0  0  0  0  0  0  0
   -2.4710   15.2220   -0.0840 C   0  0  0  0  0  0  0  0  0  0  0  0
    1.1550   17.1690   -4.9520 C   0  0  0  0  0  0  0  0  0  0  0  0
    1.1660   18.4050   -5.5760 C   0  0  0  0  0  0  0  0  0  0  0  0
  2  3  1  0  0  0  0
  3  4  1  0  0  0  0
  1  5  4  0  0  0  0
  6 19  2  0  0  0  0
  4  7  4  0  0  0  0
  5  8  4  0  0  0  0
  7  9  4  0  0  0  0
  8 10  4  0  0  0  0
  9 11  4  0  0  0  0
 11 26  4  0  0  0  0
 12 13  1  0  0  0  0
 11 13  1  0  0  0  0
 13 15  1  0  0  0  0
 15 17  1  0  0  0  0
 16 21  4  0  0  0  0
  1 17  4  0  0  0  0
 10 17  4  0  0  0  0
 18 22  4  0  0  0  0
 12 19  1  0  0  0  0
 19 20  1  0  0  0  0
 14 20  4  0  0  0  0
 20 25  4  0  0  0  0
 14 21  4  0  0  0  0
 16 22  4  0  0  0  0
 18 23  4  0  0  0  0
 23 24  4  0  0  0  0
 22 25  4  0  0  0  0
 24 25  4  0  0  0  0
 26 27  4  0  0  0  0
  4 27  4  0  0  0  0
M  END
>  <pdb_header>
REMARK --------------------- added by autoBUSTER ---------------------------------START
REMARK run at   = Fri Apr 28 09:13:24 BST 2023
REMARK     in   = /dls/labxchem/data/lb32627/lb32627-1/processing/analysis/model_building/SARS2_Mac1A-A1381
REMARK     user = dcn76311
REMARK     cmd  = \
REMARK            /dls_sw/apps/GPhL/BUSTER/20230217/autoBUSTER/bin/linux64/refine \
REMARK            -p \
REMARK            /dls/labxchem/data/lb32627/lb32627-1/processing/analysis/model_building/SARS2_Mac1A-A1381/cootOut/Refine_9/in.pdb \
REMARK            -m \
REMARK            /dls/labxchem/data/lb32627/lb32627-1/processing/analysis/model_building/SARS2_Mac1A-A1381/SARS2_Mac1A-A1381.free.mtz \
REMARK            -l \
REMARK            /dls/labxchem/data/lb32627/lb32627-1/processing/analysis/model_building/SARS2_Mac1A-A1381/ASAP-0008340-001.cif \
REMARK            -autoncs -M TLSbasic -d Refine_9
REMARK Files used:
REMARK   PDB              = Refine_9/pdbchk.pdb
REMARK   MTZ              = /dls/labxchem/data/lb32627/lb32627-1/processing/analysis/model_building/SARS2_Mac1A-A1381/SARS2_Mac1A-A1381.free.mtz
REMARK output written to subdirectory = Refine_9
REMARK best refinement for F,SIGF with R/Rfree 0.1961/0.2456
REMARK header records are copied from input PDB file (apart from REMARK 3!)
REMARK --------------------- added by autoBUSTER -----------------------------------END
REMARK --------------------- added by autoBUSTER -------------------------------
REMARK run at   = Thu Apr 27 23:41:20 BST 2023                                  
REMARK     in   = /dls/labxchem/data/lb32627/lb32627-1/processing/analysis/model
REMARK     user = ill13029                                                      
REMARK     cmd  = \                                                             
REMARK            /dls_sw/apps/GPhL/BUSTER/20230217/autoBUSTER/bin/linux64/refin
REMARK            -p \                                                          
REMARK            /dls/labxchem/data/lb32627/lb32627-1/processing/analysis/model
REMARK            -m \                                                          
REMARK            /dls/labxchem/data/lb32627/lb32627-1/processing/analysis/model
REMARK            -l \                                                          
REMARK            /dls/labxchem/data/lb32627/lb32627-1/processing/analysis/model
REMARK            -autoncs -M TLSbasic -d Refine_8                              
REMARK Files used:                                                              
REMARK   PDB              = Refine_8/pdbchk.pdb                                 
REMARK   MTZ              = /dls/labxchem/data/lb32627/lb32627-1/processing/anal
REMARK output written to subdirectory = Refine_8                                
REMARK best refinement for F,SIGF with R/Rfree 0.1964/0.2457                    
REMARK header records are copied from input PDB file (apart from REMARK 3!)     
REMARK --------------------- added by autoBUSTER -------------------------------
REMARK --------------------- added by autoBUSTER -------------------------------
REMARK run at   = Thu Apr 27 14:21:38 BST 2023                                  
REMARK     in   = /dls/labxchem/data/lb32627/lb32627-1/processing/analysis/model
REMARK     user = ill13029                                                      
REMARK     cmd  = \                                                             
REMARK            /dls_sw/apps/GPhL/BUSTER/20230217/autoBUSTER/bin/linux64/refin
REMARK            -p \                                                          
REMARK            /dls/labxchem/data/lb32627/lb32627-1/processing/analysis/model
REMARK            -m \                                                          
REMARK            /dls/labxchem/data/lb32627/lb32627-1/processing/analysis/model
REMARK            -l \                                                          
REMARK            /dls/labxchem/data/lb32627/lb32627-1/processing/analysis/model
REMARK            -autoncs -M TLSbasic -d Refine_7                              
REMARK Files used:                                                              
REMARK   PDB              = Refine_7/pdbchk.pdb                                 
REMARK   MTZ              = /dls/labxchem/data/lb32627/lb32627-1/processing/anal
REMARK output written to subdirectory = Refine_7                                
REMARK best refinement for F,SIGF with R/Rfree 0.1967/0.2452                    
REMARK header records are copied from input PDB file (apart from REMARK 3!)     
REMARK --------------------- added by autoBUSTER -------------------------------
REMARK --------------------- added by autoBUSTER -------------------------------
REMARK run at   = Thu Apr 27 14:00:58 BST 2023                                  
REMARK     in   = /dls/labxchem/data/lb32627/lb32627-1/processing/analysis/model
REMARK     user = ill13029                                                      
REMARK     cmd  = \                                                             
REMARK            /dls_sw/apps/GPhL/BUSTER/20230217/autoBUSTER/bin/linux64/refin
REMARK            -p \                                                          
REMARK            /dls/labxchem/data/lb32627/lb32627-1/processing/analysis/model
REMARK            -m \                                                          
REMARK            /dls/labxchem/data/lb32627/lb32627-1/processing/analysis/model
REMARK            -l \                                                          
REMARK            /dls/labxchem/data/lb32627/lb32627-1/processing/analysis/model
REMARK            -autoncs -M TLSbasic -d Refine_6                              
REMARK Files used:                                                              
REMARK   PDB              = Refine_6/pdbchk.pdb                                 
REMARK   MTZ              = /dls/labxchem/data/lb32627/lb32627-1/processing/anal
REMARK output written to subdirectory = Refine_6                                
REMARK best refinement for F,SIGF with R/Rfree 0.1965/0.2449                    
REMARK header records are copied from input PDB file (apart from REMARK 3!)     
REMARK --------------------- added by autoBUSTER -------------------------------
REMARK --------------------- added by autoBUSTER -------------------------------
REMARK run at   = Wed Apr 26 13:50:50 BST 2023                                  
REMARK     in   = /dls/labxchem/data/lb32627/lb32627-1/processing/analysis/model
REMARK     user = dcn76311                                                      
REMARK     cmd  = \                                                             
REMARK            /dls_sw/apps/GPhL/BUSTER/20230217/autoBUSTER/bin/linux64/refin
REMARK            -p \                                                          
REMARK            /dls/labxchem/data/lb32627/lb32627-1/processing/analysis/model
REMARK            -m \                                                          
REMARK            /dls/labxchem/data/lb32627/lb32627-1/processing/analysis/model
REMARK            -l \                                                          
REMARK            /dls/labxchem/data/lb32627/lb32627-1/processing/analysis/model
REMARK            -autoncs -M TLSbasic -d Refine_5                              
REMARK Files used:                                                              
REMARK   PDB              = Refine_5/pdbchk.pdb                                 
REMARK   MTZ              = /dls/labxchem/data/lb32627/lb32627-1/processing/anal
REMARK output written to subdirectory = Refine_5                                
REMARK best refinement for F,SIGF with R/Rfree 0.1986/0.2503                    
REMARK header records are copied from input PDB file (apart from REMARK 3!)     
REMARK --------------------- added by autoBUSTER -------------------------------
REMARK --------------------- added by autoBUSTER -------------------------------
REMARK run at   = Tue Apr 25 11:42:26 BST 2023                                  
REMARK     in   = /dls/labxchem/data/lb32627/lb32627-1/processing/analysis/model
REMARK     user = dcn76311                                                      
REMARK     cmd  = \                                                             
REMARK            /dls_sw/apps/GPhL/BUSTER/20230217/autoBUSTER/bin/linux64/refin
REMARK            -p \                                                          
REMARK            /dls/labxchem/data/lb32627/lb32627-1/processing/analysis/model
REMARK            -m \                                                          
REMARK            /dls/labxchem/data/lb32627/lb32627-1/processing/analysis/model
REMARK            -l \                                                          
REMARK            /dls/labxchem/data/lb32627/lb32627-1/processing/analysis/model
REMARK            -autoncs -M TLSbasic -d Refine_4                              
REMARK Files used:                                                              
REMARK   PDB              = Refine_4/pdbchk.pdb                                 
REMARK   MTZ              = /dls/labxchem/data/lb32627/lb32627-1/processing/anal
REMARK output written to subdirectory = Refine_4                                
REMARK best refinement for F,SIGF with R/Rfree 0.1989/0.2489                    
REMARK header records are copied from input PDB file (apart from REMARK 3!)     
REMARK --------------------- added by autoBUSTER -------------------------------
REMARK --------------------- added by autoBUSTER -------------------------------
REMARK run at   = Tue Apr 25 10:39:36 BST 2023                                  
REMARK     in   = /dls/labxchem/data/lb32627/lb32627-1/processing/analysis/model
REMARK     user = dcn76311                                                      
REMARK     cmd  = \                                                             
REMARK            /dls_sw/apps/GPhL/BUSTER/20230217/autoBUSTER/bin/linux64/refin
REMARK            -p \                                                          
REMARK            /dls/labxchem/data/lb32627/lb32627-1/processing/analysis/model
REMARK            -m \                                                          
REMARK            /dls/labxchem/data/lb32627/lb32627-1/processing/analysis/model
REMARK            -l \                                                          
REMARK            /dls/labxchem/data/lb32627/lb32627-1/processing/analysis/model
REMARK            -autoncs -M TLSbasic -d Refine_3                              
REMARK Files used:                                                              
REMARK   PDB              = Refine_3/pdbchk.pdb                                 
REMARK   MTZ              = /dls/labxchem/data/lb32627/lb32627-1/processing/anal
REMARK output written to subdirectory = Refine_3                                
REMARK best refinement for F,SIGF with R/Rfree 0.1982/0.2496                    
REMARK header records are copied from input PDB file (apart from REMARK 3!)     
REMARK --------------------- added by autoBUSTER -------------------------------
REMARK --------------------- added by autoBUSTER -------------------------------
REMARK run at   = Tue Apr 25 07:40:18 BST 2023                                  
REMARK     in   = /dls/labxchem/data/lb32627/lb32627-1/processing/analysis/model
REMARK     user = dcn76311                                                      
REMARK     cmd  = \                                                             
REMARK            /dls_sw/apps/GPhL/BUSTER/20230217/autoBUSTER/bin/linux64/refin
REMARK            -p \                                                          
REMARK            /dls/labxchem/data/lb32627/lb32627-1/processing/analysis/model
REMARK            -m \                                                          
REMARK            /dls/labxchem/data/lb32627/lb32627-1/processing/analysis/model
REMARK            -l \                                                          
REMARK            /dls/labxchem/data/lb32627/lb32627-1/processing/analysis/model
REMARK            -autoncs -M TLSbasic -B user -Gelly gelly.dat -d Refine_2     
REMARK Files used:                                                              
REMARK   PDB              = Refine_2/pdbchk.pdb                                 
REMARK   MTZ              = /dls/labxchem/data/lb32627/lb32627-1/processing/anal
REMARK   Gelly commands       = /dls/labxchem/data/lb32627/lb32627-1/processing/
REMARK output written to subdirectory = Refine_2                                
REMARK best refinement for F,SIGF with R/Rfree 0.1938/0.2504                    
REMARK header records are copied from input PDB file (apart from REMARK 3!)     
REMARK --------------------- added by autoBUSTER -------------------------------
REMARK --------------------- added by autoBUSTER -------------------------------
REMARK run at   = Tue Apr 25 06:33:39 BST 2023                                  
REMARK     in   = /dls/labxchem/data/lb32627/lb32627-1/processing/analysis/model
REMARK     user = dcn76311                                                      
REMARK     cmd  = \                                                             
REMARK            /dls_sw/apps/GPhL/BUSTER/20230217/autoBUSTER/bin/linux64/refin
REMARK            -p \                                                          
REMARK            /dls/labxchem/data/lb32627/lb32627-1/processing/analysis/model
REMARK            -m \                                                          
REMARK            /dls/labxchem/data/lb32627/lb32627-1/processing/analysis/model
REMARK            -l \                                                          
REMARK            /dls/labxchem/data/lb32627/lb32627-1/processing/analysis/model
REMARK            -autoncs -M TLSbasic -d Refine_1                              
REMARK Files used:                                                              
REMARK   PDB              = Refine_1/pdbchk.pdb                                 
REMARK   MTZ              = /dls/labxchem/data/lb32627/lb32627-1/processing/anal
REMARK output written to subdirectory = Refine_1                                
REMARK best refinement for F,SIGF with R/Rfree 0.1957/0.2513                    
REMARK header records are copied from input PDB file (apart from REMARK 3!)     
REMARK --------------------- added by autoBUSTER -------------------------------
HEADER    ----                                    18-MAY-20                     
TITLE     ---                                                                   
COMPND    ---                                                                   
EXPDTA    X-RAY DIFFRACTION
REMARK   2                                                            
REMARK   2 RESOLUTION.    1.85 ANGSTROMS.
REMARK   3
REMARK   3 REFINEMENT.
REMARK   3   PROGRAM     : BUSTER 2.10.4 (17-FEB-2023)
REMARK   3   AUTHORS     : BRICOGNE,BLANC,BRANDL,FLENSBURG,KELLER,
REMARK   3               : PACIOREK,ROVERSI,SHARFF,SMART,VONRHEIN,WOMACK;
REMARK   3               : MATTHEWS,TEN EYCK,TRONRUD
REMARK   3
REMARK   3  DATA USED IN REFINEMENT.
REMARK   3   RESOLUTION RANGE HIGH (ANGSTROMS) : 1.850
REMARK   3   RESOLUTION RANGE LOW  (ANGSTROMS) : 44.36
REMARK   3   DATA CUTOFF            (SIGMA(F)) : 0.000
REMARK   3   COMPLETENESS FOR RANGE        (%) : 99.9
REMARK   3   NUMBER OF REFLECTIONS             : 26523
REMARK   3
REMARK   3  FIT TO DATA USED IN REFINEMENT.
REMARK   3   CROSS-VALIDATION METHOD          : THROUGHOUT
REMARK   3   FREE R VALUE TEST SET SELECTION  : RANDOM
REMARK   3   R VALUE     (WORKING + TEST SET) : 0.1985
REMARK   3   R VALUE            (WORKING SET) : 0.1961
REMARK   3   FREE R VALUE                     : 0.2456
REMARK   3   FREE R VALUE TEST SET SIZE   (%) : 4.900
REMARK   3   FREE R VALUE TEST SET COUNT      : 1299
REMARK   3   ESTIMATED ERROR OF FREE R VALUE  : NULL
REMARK   3
REMARK   3  FIT IN THE HIGHEST RESOLUTION BIN.
REMARK   3   TOTAL NUMBER OF BINS USED           : 51
REMARK   3   BIN RESOLUTION RANGE HIGH       (A) : 1.85
REMARK   3   BIN RESOLUTION RANGE LOW        (A) : 1.86
REMARK   3   BIN COMPLETENESS (WORKING+TEST) (%) : 98.37
REMARK   3   REFLECTIONS IN BIN   (WORKING+TEST) : 531
REMARK   3   BIN R VALUE          (WORKING+TEST) : 0.3519
REMARK   3   REFLECTIONS IN BIN    (WORKING SET) : 502
REMARK   3   BIN R VALUE           (WORKING SET) : 0.3460
REMARK   3   BIN FREE R VALUE                    : 0.4514
REMARK   3   BIN FREE R VALUE TEST SET SIZE  (%) : 5.46
REMARK   3   BIN FREE R VALUE TEST SET COUNT     : 29
REMARK   3   ESTIMATED ERROR OF BIN FREE R VALUE : NULL
REMARK   3
REMARK   3  NUMBER OF NON-HYDROGEN ATOMS USED IN REFINEMENT.
REMARK   3   PROTEIN ATOMS            : 2519
REMARK   3   NUCLEIC ACID ATOMS       : 0
REMARK   3   HETEROGEN ATOMS          : 39
REMARK   3   SOLVENT ATOMS            : 341
REMARK   3
REMARK   3  B VALUES.
REMARK   3   FROM WILSON PLOT           (A**2) : 27.99
REMARK   3   MEAN B VALUE      (OVERALL, A**2) : 28.81
REMARK   3   OVERALL ANISOTROPIC B VALUE.
REMARK   3    B11 (A**2) : 3.73070
REMARK   3    B22 (A**2) : 3.73070
REMARK   3    B33 (A**2) : -7.46150
REMARK   3    B12 (A**2) : 0.00000
REMARK   3    B13 (A**2) : 0.00000
REMARK   3    B23 (A**2) : 0.00000
REMARK   3
REMARK   3  ESTIMATED COORDINATE ERROR.
REMARK   3   ESD FROM LUZZATI PLOT                    (A) : 0.24
REMARK   3   DPI (BLOW EQ-10) BASED ON R VALUE        (A) : 0.177
REMARK   3   DPI (BLOW EQ-9) BASED ON FREE R VALUE    (A) : 0.157
REMARK   3   DPI (CRUICKSHANK) BASED ON R VALUE       (A) : 0.161
REMARK   3   DPI (CRUICKSHANK) BASED ON FREE R VALUE  (A) : 0.151
REMARK   3
REMARK   3   REFERENCES: BLOW, D. (2002) ACTA CRYST D58, 792-797
REMARK   3               CRUICKSHANK, D.W.J. (1999) ACTA CRYST D55, 583-601
REMARK   3
REMARK   3  CORRELATION COEFFICIENTS.
REMARK   3   CORRELATION COEFFICIENT FO-FC      : 0.949
REMARK   3   CORRELATION COEFFICIENT FO-FC FREE : 0.930
REMARK   3
REMARK   3  X-RAY WEIGHT : 5.42
REMARK   3
REMARK   3  GEOMETRY FUNCTION.                                                  
REMARK   3   RESTRAINT LIBRARIES.                                               
REMARK   3    NUMBER OF LIBRARIES USED :   9                                    
REMARK   3    LIBRARY  1 : protgeo_eh99.dat (V1.6.4.20) 20220523  STANDARD      
REMARK   3                 AMINO ACID DICTIONARY. BONDS AND ANGLES FROM         
REMARK   3                 ENGH AND HUBER EH99. OTHER VALUES BASED ON           
REMARK   3                 PREVIOUS TNT OR TAKEN FROM CCP4. INCLUDES            
REMARK   3                 HYDROGEN ATOMS.                                      
REMARK   3    LIBRARY  2 : exoticaa.dat (V1.3.4.16) 20220523  COLLECTION        
REMARK   3                 OF NON-STANDARD AMINO ACIDS, MAINLY EH91             
REMARK   3                 WITHOUT IDEAL DISTANCE INFO                          
REMARK   3    LIBRARY  3 : nuclgeo.dat (V1.13.4.9) 20221011                     
REMARK   3    LIBRARY  4 : bcorrel.dat (V1.15.10.2) 20190616                    
REMARK   3    LIBRARY  5 : contact.dat (V1.15.12.10) 20191121                   
REMARK   3    LIBRARY  6 : idealdist_contact.dat (V1.3.4.13) 20220125           
REMARK   3                 IDEAL-DISTANCE CONTACT TERM DATA AS USED IN          
REMARK   3                 PROLSQ. VALUES USED HERE ARE BASED ON DATA           
REMARK   3                 HARVESTING OF PDB AS OF 20190109.                    
REMARK   3    LIBRARY  7 : restraints for LIG (unknown) from cif                
REMARK   3                 dictionary ASAP-0008340-001.cif; generated by        
REMARK   3                 GRADE 1.2.21 (Feb 03 2022) from SMILES               
REMARK   3                 COc1ccc([C@@H](Cc2nnn[nH]2)NC(=O)c2ncnc3[nH]ccc2     
REMARK   3                 3)cc1 using MOGUL 1.8.5(274361), CSD as541be,        
REMARK   3                 with quantum mechanics RM1                           
REMARK   3    LIBRARY  8 : restraints for DMS (DIMETHYL SULFOXIDE) from         
REMARK   3                 cif dictionary DMS.cif; generated by grade2          
REMARK   3                 version 1.1.0a7 from                                 
REMARK   3                 PDB_chemical_components_definition_file              
REMARK   3                 ftp://ftp.ebi.ac.uk/pub/databases/msd/pdbechem_v     
REMARK   3                 2/D/DMS/DMS.cif using RDKit 2021.03.4                
REMARK   3                 ((DatabaseID PDB-DMS))                               
REMARK   3    LIBRARY  9 : assume.dat (V1.9.4.3) 20221011                       
REMARK   3                                                                      
REMARK   3   NUMBER OF GEOMETRIC FUNCTION TERMS DEFINED : 15                    
REMARK   3   TERM                          COUNT    WEIGHT   FUNCTION.          
REMARK   3    BOND LENGTHS              :   2646 ;   2.00 ;  HARMONIC           
REMARK   3    BOND ANGLES               :   3605 ;   2.00 ;  HARMONIC           
REMARK   3    TORSION ANGLES            :    898 ;   2.00 ;  SINUSOIDAL         
REMARK   3    TRIGONAL CARBON PLANES    :   NULL ;   NULL ;  NULL               
REMARK   3    GENERAL PLANES            :    483 ;   5.00 ;  HARMONIC           
REMARK   3    ISOTROPIC THERMAL FACTORS :   2646 ;  10.00 ;  HARMONIC           
REMARK   3    BAD NON-BONDED CONTACTS   :   NULL ;   NULL ;  NULL               
REMARK   3    IMPROPER TORSIONS         :   NULL ;   NULL ;  NULL               
REMARK   3    PSEUDOROTATION ANGLES     :   NULL ;   NULL ;  NULL               
REMARK   3    CHIRAL IMPROPER TORSION   :    339 ;   5.00 ;  SEMIHARMONIC       
REMARK   3    SUM OF OCCUPANCIES        :   NULL ;   NULL ;  NULL               
REMARK   3    UTILITY DISTANCES         :   NULL ;   NULL ;  NULL               
REMARK   3    UTILITY ANGLES            :   NULL ;   NULL ;  NULL               
REMARK   3    UTILITY TORSION           :   NULL ;   NULL ;  NULL               
REMARK   3    IDEAL-DIST CONTACT TERM   :   2506 ;   4.00 ;  SEMIHARMONIC       
REMARK   3                                                                      
REMARK   3   RMS DEVIATIONS FROM IDEAL VALUES.                                  
REMARK   3   BOND LENGTHS                       (A) : 0.009                     
REMARK   3   BOND ANGLES                  (DEGREES) : 0.99                      
REMARK   3   PEPTIDE OMEGA TORSION ANGLES (DEGREES) : 3.65                      
REMARK   3   OTHER TORSION ANGLES         (DEGREES) : 14.93                     
REMARK   3                                                                      
REMARK   3   SIMILARITY.                                                        
REMARK   3    NCS.                                                              
REMARK   3     NCS METHOD: RESTRAINT LSSR (-AUTONCS)                            
REMARK   3    TARGET RESTRAINTS.                                                
REMARK   3     TARGET REPRESENTATION : NONE                                     
REMARK   3     TARGET STRUCTURE : NULL                                          
REMARK   3                                                                      
REMARK   3  TLS DETAILS.                                                        
REMARK   3   NUMBER OF TLS GROUPS  :            2                               
REMARK   3                                                                      
REMARK   3   TLS GROUP :            1                                           
REMARK   3    SET : { A|* }                                                     
REMARK   3    ORIGIN FOR THE GROUP (A):    4.1766   21.5059   -0.5668           
REMARK   3    T TENSOR                                                          
REMARK   3     T11:   -0.0099 T22:   -0.0339                                    
REMARK   3     T33:   -0.0008 T12:    0.0001                                    
REMARK   3     T13:   -0.0394 T23:    0.0080                                    
REMARK   3    L TENSOR                                                          
REMARK   3     L11:    1.1365 L22:    1.0026                                    
REMARK   3     L33:    0.0835 L12:   -0.2136                                    
REMARK   3     L13:    0.1951 L23:    0.0644                                    
REMARK   3    S TENSOR                                                          
REMARK   3     S11:    0.0762 S12:   -0.0300 S13:   -0.1119                     
REMARK   3     S21:    0.0156 S22:   -0.0118 S23:   -0.0366                     
REMARK   3     S31:    0.0154 S32:   -0.0124 S33:   -0.0644                     
REMARK   3                                                                      
REMARK   3   TLS GROUP :            2                                           
REMARK   3    SET : { B|* }                                                     
REMARK   3    ORIGIN FOR THE GROUP (A):   22.2688   43.2660   -7.6111           
REMARK   3    T TENSOR                                                          
REMARK   3     T11:   -0.0485 T22:   -0.0256                                    
REMARK   3     T33:   -0.0225 T12:    0.0007                                    
REMARK   3     T13:   -0.0103 T23:   -0.0092                                    
REMARK   3    L TENSOR                                                          
REMARK   3     L11:    1.7848 L22:    1.5220                                    
REMARK   3     L33:    0.5374 L12:   -0.5266                                    
REMARK   3     L13:   -0.5387 L23:    0.1864                                    
REMARK   3    S TENSOR                                                          
REMARK   3     S11:    0.0485 S12:   -0.0033 S13:   -0.0182                     
REMARK   3     S21:   -0.0389 S22:   -0.0437 S23:   -0.1056                     
REMARK   3     S31:   -0.0456 S32:    0.0379 S33:   -0.0048                     
REMARK   3                                                                      
REMARK   3  REFINEMENT NOTES.                                                   
REMARK   3   NUMBER OF REFINEMENT NOTES :   1                                   
REMARK   3   NOTE   1 : IDEAL-DIST CONTACT TERM CONTACT SETUP. ALL ATOMS        
REMARK   3               HAVE CCP4 ATOM TYPE FROM LIBRARY                       
REMARK   3
REMARK   3  OTHER REFINEMENT REMARKS: NULL
REMARK   3
REMARK 290                                                            
REMARK 290 CRYSTALLOGRAPHIC SYMMETRY                                  
REMARK 290 SYMMETRY OPERATORS FOR SPACE GROUP: P 43                   
REMARK 290                                                            
REMARK 290      SYMOP   SYMMETRY                                      
REMARK 290     NNNMMM   OPERATOR                                      
REMARK 290       1555   X,Y,Z                                         
REMARK 290       2555   -X,-Y,1/2+Z                                   
REMARK 290       3555   -Y,X,3/4+Z                                    
REMARK 290       4555   Y,-X,1/4+Z                                    
REMARK 290                                                            
REMARK 290     WHERE NNN -> OPERATOR NUMBER                           
REMARK 290           MMM -> TRANSLATION VECTOR                        
REMARK 290                                                            
REMARK 290 CRYSTALLOGRAPHIC SYMMETRY TRANSFORMATIONS                  
REMARK 290 THE FOLLOWING TRANSFORMATIONS OPERATE ON THE ATOM/HETATM   
REMARK 290 RECORDS IN THIS ENTRY TO PRODUCE CRYSTALLOGRAPHICALLY      
REMARK 290 RELATED MOLECULES.                                         
REMARK 290   SMTRY1   1  1.000000  0.000000  0.000000        0.00000
REMARK 290   SMTRY2   1  0.000000  1.000000  0.000000        0.00000
REMARK 290   SMTRY3   1  0.000000  0.000000  1.000000        0.00000
REMARK 290   SMTRY1   2 -1.000000  0.000000  0.000000        0.00000
REMARK 290   SMTRY2   2  0.000000 -1.000000  0.000000        0.00000
REMARK 290   SMTRY3   2  0.000000  0.000000  1.000000       19.69000
REMARK 290   SMTRY1   3  0.000000 -1.000000  0.000000        0.00000
REMARK 290   SMTRY2   3  1.000000  0.000000  0.000000        0.00000
REMARK 290   SMTRY3   3  0.000000  0.000000  1.000000       29.53500
REMARK 290   SMTRY1   4  0.000000  1.000000  0.000000        0.00000
REMARK 290   SMTRY2   4 -1.000000  0.000000  0.000000        0.00000
REMARK 290   SMTRY3   4  0.000000  0.000000  1.000000        9.84500
REMARK 290                                                            
REMARK 290 REMARK: NULL                                               
CRYST1   88.720   88.720   39.380  90.00  90.00  90.00 P 43           


$$$$
SARS2_Mac1A-A1386
  PyMOL3.0          3D                             0

 28 31  0  0  0  0  0  0  0  0999 V2000
   -6.5790   14.9010    1.3490 N   0  0  0  0  0  0  0  0  0  0  0  0
   -8.0090   14.7990    1.5630 C   0  0  0  0  0  0  0  0  0  0  0  0
   -6.7600   15.1020   -0.8720 O   0  0  0  0  0  0  0  0  0  0  0  0
   -6.0660   15.0520    0.1370 C   0  0  0  0  0  0  0  0  0  0  0  0
   -1.0880   14.2420   -2.4050 N   0  0  0  0  0  0  0  0  0  0  0  0
   -2.0170   18.1700   -5.1240 O   0  0  0  0  0  0  0  0  0  0  0  0
   -4.6060   15.1170    0.0530 C   0  0  0  0  0  0  0  0  0  0  0  0
   -0.0830   14.8610   -0.4090 N   0  0  0  0  0  0  0  0  0  0  0  0
    0.5420   19.2650   -5.7400 O   0  0  0  0  0  0  0  0  0  0  0  0
   -3.8140   14.9530   -1.0520 C   0  0  0  0  0  0  0  0  0  0  0  0
   -1.4110   15.2690    1.5670 N   0  0  0  0  0  0  0  0  0  0  0  0
   -2.4650   14.9990   -0.6090 C   0  0  0  0  0  0  0  0  0  0  0  0
   -3.8040   15.2790    1.1690 N   0  0  0  0  0  0  0  0  0  0  0  0
   -1.1910   14.7690   -1.1700 C   0  0  0  0  0  0  0  0  0  0  0  0
    0.1090   14.2330   -3.2240 C   0  0  0  0  0  0  0  0  0  0  0  0
    0.2050   15.4770   -4.0790 C   0  0  0  0  0  0  0  0  0  0  0  0
    1.4380   16.0240   -4.3840 C   0  0  0  0  0  0  0  0  0  0  0  0
    1.5460   17.3000   -4.9040 C   0  0  0  0  0  0  0  0  0  0  0  0
    0.4030   18.0330   -5.1540 C   0  0  0  0  0  0  0  0  0  0  0  0
   -0.8540   17.4830   -4.8800 C   0  0  0  0  0  0  0  0  0  0  0  0
   -0.9460   16.2080   -4.3610 C   0  0  0  0  0  0  0  0  0  0  0  0
   -1.9660   18.9980   -6.3040 C   0  0  0  0  0  0  0  0  0  0  0  0
   -0.5200   19.5770   -6.6600 C   0  0  0  0  0  0  0  0  0  0  0  0
    0.2290   12.9310   -4.0500 C   0  0  0  0  0  0  0  0  0  0  0  0
   -1.0780   12.5890   -4.7540 C   0  0  0  0  0  0  0  0  0  0  0  0
    0.6750   11.7570   -3.1800 C   0  0  0  0  0  0  0  0  0  0  0  0
   -0.2650   15.1030    0.8960 C   0  0  0  0  0  0  0  0  0  0  0  0
   -2.4920   15.2060    0.7750 C   0  0  0  0  0  0  0  0  0  0  0  0
  1  2  1  0  0  0  0
  3  4  2  0  0  0  0
  1  4  1  0  0  0  0
  4  7  1  0  0  0  0
  5 15  1  0  0  0  0
  6 22  1  0  0  0  0
  7 10  4  0  0  0  0
  7 13  4  0  0  0  0
  8 14  4  0  0  0  0
  9 19  1  0  0  0  0
 11 27  4  0  0  0  0
 10 12  4  0  0  0  0
 12 14  4  0  0  0  0
 13 28  4  0  0  0  0
  5 14  1  0  0  0  0
 15 16  1  0  0  0  0
 15 24  1  0  0  0  0
 16 17  4  0  0  0  0
 16 21  4  0  0  0  0
 17 18  4  0  0  0  0
 18 19  4  0  0  0  0
  6 20  1  0  0  0  0
 19 20  4  0  0  0  0
 20 21  4  0  0  0  0
 22 23  1  0  0  0  0
  9 23  1  0  0  0  0
 24 25  1  0  0  0  0
 24 26  1  0  0  0  0
  8 27  4  0  0  0  0
 11 28  4  0  0  0  0
 12 28  4  0  0  0  0
M  END
>  <pdb_header>
REMARK --------------------- added by autoBUSTER ---------------------------------START
REMARK run at   = Thu Apr 27 23:40:40 BST 2023
REMARK     in   = /dls/labxchem/data/lb32627/lb32627-1/processing/analysis/model_building/SARS2_Mac1A-A1386
REMARK     user = ill13029
REMARK     cmd  = \
REMARK            /dls_sw/apps/GPhL/BUSTER/20230217/autoBUSTER/bin/linux64/refine \
REMARK            -p \
REMARK            /dls/labxchem/data/lb32627/lb32627-1/processing/analysis/model_building/SARS2_Mac1A-A1386/cootOut/Refine_12/in.pdb \
REMARK            -m \
REMARK            /dls/labxchem/data/lb32627/lb32627-1/processing/analysis/model_building/SARS2_Mac1A-A1386/SARS2_Mac1A-A1386.free.mtz \
REMARK            -l \
REMARK            /dls/labxchem/data/lb32627/lb32627-1/processing/analysis/model_building/SARS2_Mac1A-A1386/ASAP-0008348-001.cif \
REMARK            -autoncs -M TLSbasic -d Refine_12
REMARK Files used:
REMARK   PDB              = Refine_12/pdbchk.pdb
REMARK   MTZ              = /dls/labxchem/data/lb32627/lb32627-1/processing/analysis/model_building/SARS2_Mac1A-A1386/SARS2_Mac1A-A1386.free.mtz
REMARK output written to subdirectory = Refine_12
REMARK best refinement for F,SIGF with R/Rfree 0.2026/0.2675
REMARK header records are copied from input PDB file (apart from REMARK 3!)
REMARK --------------------- added by autoBUSTER -----------------------------------END
REMARK --------------------- added by autoBUSTER -------------------------------
REMARK run at   = Thu Apr 27 19:36:23 BST 2023                                  
REMARK     in   = /dls/labxchem/data/lb32627/lb32627-1/processing/analysis/model
REMARK     user = ill13029                                                      
REMARK     cmd  = \                                                             
REMARK            /dls_sw/apps/GPhL/BUSTER/20230217/autoBUSTER/bin/linux64/refin
REMARK            -p \                                                          
REMARK            /dls/labxchem/data/lb32627/lb32627-1/processing/analysis/model
REMARK            -m \                                                          
REMARK            /dls/labxchem/data/lb32627/lb32627-1/processing/analysis/model
REMARK            -l \                                                          
REMARK            /dls/labxchem/data/lb32627/lb32627-1/processing/analysis/model
REMARK            -autoncs -M TLSbasic -d Refine_11                             
REMARK Files used:                                                              
REMARK   PDB              = Refine_11/pdbchk.pdb                                
REMARK   MTZ              = /dls/labxchem/data/lb32627/lb32627-1/processing/anal
REMARK output written to subdirectory = Refine_11                               
REMARK best refinement for F,SIGF with R/Rfree 0.2024/0.2673                    
REMARK header records are copied from input PDB file (apart from REMARK 3!)     
REMARK --------------------- added by autoBUSTER -------------------------------
REMARK --------------------- added by autoBUSTER -------------------------------
REMARK run at   = Thu Apr 27 19:17:15 BST 2023                                  
REMARK     in   = /dls/labxchem/data/lb32627/lb32627-1/processing/analysis/model
REMARK     user = ill13029                                                      
REMARK     cmd  = \                                                             
REMARK            /dls_sw/apps/GPhL/BUSTER/20230217/autoBUSTER/bin/linux64/refin
REMARK            -p \                                                          
REMARK            /dls/labxchem/data/lb32627/lb32627-1/processing/analysis/model
REMARK            -m \                                                          
REMARK            /dls/labxchem/data/lb32627/lb32627-1/processing/analysis/model
REMARK            -l \                                                          
REMARK            /dls/labxchem/data/lb32627/lb32627-1/processing/analysis/model
REMARK            -autoncs -M TLSbasic -d Refine_10                             
REMARK Files used:                                                              
REMARK   PDB              = Refine_10/pdbchk.pdb                                
REMARK   MTZ              = /dls/labxchem/data/lb32627/lb32627-1/processing/anal
REMARK output written to subdirectory = Refine_10                               
REMARK best refinement for F,SIGF with R/Rfree 0.2021/0.2694                    
REMARK header records are copied from input PDB file (apart from REMARK 3!)     
REMARK --------------------- added by autoBUSTER -------------------------------
REMARK --------------------- added by autoBUSTER -------------------------------
REMARK run at   = Thu Apr 27 14:17:38 BST 2023                                  
REMARK     in   = /dls/labxchem/data/lb32627/lb32627-1/processing/analysis/model
REMARK     user = ill13029                                                      
REMARK     cmd  = \                                                             
REMARK            /dls_sw/apps/GPhL/BUSTER/20230217/autoBUSTER/bin/linux64/refin
REMARK            -p \                                                          
REMARK            /dls/labxchem/data/lb32627/lb32627-1/processing/analysis/model
REMARK            -m \                                                          
REMARK            /dls/labxchem/data/lb32627/lb32627-1/processing/analysis/model
REMARK            -l \                                                          
REMARK            /dls/labxchem/data/lb32627/lb32627-1/processing/analysis/model
REMARK            -autoncs -M TLSbasic -d Refine_9                              
REMARK Files used:                                                              
REMARK   PDB              = Refine_9/pdbchk.pdb                                 
REMARK   MTZ              = /dls/labxchem/data/lb32627/lb32627-1/processing/anal
REMARK output written to subdirectory = Refine_9                                
REMARK best refinement for F,SIGF with R/Rfree 0.2454/0.3085                    
REMARK header records are copied from input PDB file (apart from REMARK 3!)     
REMARK --------------------- added by autoBUSTER -------------------------------
REMARK --------------------- added by autoBUSTER -------------------------------
REMARK run at   = Wed Apr 26 14:46:52 BST 2023                                  
REMARK     in   = /dls/labxchem/data/lb32627/lb32627-1/processing/analysis/model
REMARK     user = dcn76311                                                      
REMARK     cmd  = \                                                             
REMARK            /dls_sw/apps/GPhL/BUSTER/20230217/autoBUSTER/bin/linux64/refin
REMARK            -p \                                                          
REMARK            /dls/labxchem/data/lb32627/lb32627-1/processing/analysis/model
REMARK            -m \                                                          
REMARK            /dls/labxchem/data/lb32627/lb32627-1/processing/analysis/model
REMARK            -l \                                                          
REMARK            /dls/labxchem/data/lb32627/lb32627-1/processing/analysis/model
REMARK            -autoncs -M TLSbasic -d Refine_8                              
REMARK Files used:                                                              
REMARK   PDB              = Refine_8/pdbchk.pdb                                 
REMARK   MTZ              = /dls/labxchem/data/lb32627/lb32627-1/processing/anal
REMARK output written to subdirectory = Refine_8                                
REMARK best refinement for F,SIGF with R/Rfree 0.2428/0.3106                    
REMARK header records are copied from input PDB file (apart from REMARK 3!)     
REMARK --------------------- added by autoBUSTER -------------------------------
REMARK --------------------- added by autoBUSTER -------------------------------
REMARK run at   = Wed Apr 26 13:55:46 BST 2023                                  
REMARK     in   = /dls/labxchem/data/lb32627/lb32627-1/processing/analysis/model
REMARK     user = dcn76311                                                      
REMARK     cmd  = \                                                             
REMARK            /dls_sw/apps/GPhL/BUSTER/20230217/autoBUSTER/bin/linux64/refin
REMARK            -p \                                                          
REMARK            /dls/labxchem/data/lb32627/lb32627-1/processing/analysis/model
REMARK            -m \                                                          
REMARK            /dls/labxchem/data/lb32627/lb32627-1/processing/analysis/model
REMARK            -l \                                                          
REMARK            /dls/labxchem/data/lb32627/lb32627-1/processing/analysis/model
REMARK            -autoncs -M TLSbasic -d Refine_7                              
REMARK Files used:                                                              
REMARK   PDB              = Refine_7/pdbchk.pdb                                 
REMARK   MTZ              = /dls/labxchem/data/lb32627/lb32627-1/processing/anal
REMARK output written to subdirectory = Refine_7                                
REMARK best refinement for F,SIGF with R/Rfree 0.2450/0.3142                    
REMARK header records are copied from input PDB file (apart from REMARK 3!)     
REMARK --------------------- added by autoBUSTER -------------------------------
REMARK --------------------- added by autoBUSTER -------------------------------
REMARK run at   = Wed Apr 26 09:29:26 BST 2023                                  
REMARK     in   = /dls/labxchem/data/lb32627/lb32627-1/processing/analysis/model
REMARK     user = dcn76311                                                      
REMARK     cmd  = \                                                             
REMARK            /dls_sw/apps/GPhL/BUSTER/20230217/autoBUSTER/bin/linux64/refin
REMARK            -p \                                                          
REMARK            /dls/labxchem/data/lb32627/lb32627-1/processing/analysis/model
REMARK            -m \                                                          
REMARK            /dls/labxchem/data/lb32627/lb32627-1/processing/analysis/model
REMARK            -l \                                                          
REMARK            /dls/labxchem/data/lb32627/lb32627-1/processing/analysis/model
REMARK            -autoncs -M TLSbasic -B user -Gelly gelly.dat -d Refine_6     
REMARK Files used:                                                              
REMARK   PDB              = Refine_6/pdbchk.pdb                                 
REMARK   MTZ              = /dls/labxchem/data/lb32627/lb32627-1/processing/anal
REMARK   Gelly commands       = /dls/labxchem/data/lb32627/lb32627-1/processing/
REMARK output written to subdirectory = Refine_6                                
REMARK best refinement for F,SIGF with R/Rfree 0.2423/0.3087                    
REMARK header records are copied from input PDB file (apart from REMARK 3!)     
REMARK --------------------- added by autoBUSTER -------------------------------
REMARK --------------------- added by autoBUSTER -------------------------------
REMARK run at   = Tue Apr 25 11:51:50 BST 2023                                  
REMARK     in   = /dls/labxchem/data/lb32627/lb32627-1/processing/analysis/model
REMARK     user = dcn76311                                                      
REMARK     cmd  = \                                                             
REMARK            /dls_sw/apps/GPhL/BUSTER/20230217/autoBUSTER/bin/linux64/refin
REMARK            -p \                                                          
REMARK            /dls/labxchem/data/lb32627/lb32627-1/processing/analysis/model
REMARK            -m \                                                          
REMARK            /dls/labxchem/data/lb32627/lb32627-1/processing/analysis/model
REMARK            -l \                                                          
REMARK            /dls/labxchem/data/lb32627/lb32627-1/processing/analysis/model
REMARK            -autoncs -M TLSbasic -d Refine_5                              
REMARK Files used:                                                              
REMARK   PDB              = Refine_5/pdbchk.pdb                                 
REMARK   MTZ              = /dls/labxchem/data/lb32627/lb32627-1/processing/anal
REMARK output written to subdirectory = Refine_5                                
REMARK best refinement for F,SIGF with R/Rfree 0.2424/0.3108                    
REMARK header records are copied from input PDB file (apart from REMARK 3!)     
REMARK --------------------- added by autoBUSTER -------------------------------
REMARK --------------------- added by autoBUSTER -------------------------------
REMARK run at   = Tue Apr 25 10:40:43 BST 2023                                  
REMARK     in   = /dls/labxchem/data/lb32627/lb32627-1/processing/analysis/model
REMARK     user = dcn76311                                                      
REMARK     cmd  = \                                                             
REMARK            /dls_sw/apps/GPhL/BUSTER/20230217/autoBUSTER/bin/linux64/refin
REMARK            -p \                                                          
REMARK            /dls/labxchem/data/lb32627/lb32627-1/processing/analysis/model
REMARK            -m \                                                          
REMARK            /dls/labxchem/data/lb32627/lb32627-1/processing/analysis/model
REMARK            -l \                                                          
REMARK            /dls/labxchem/data/lb32627/lb32627-1/processing/analysis/model
REMARK            -autoncs -M TLSbasic -B user -Gelly gelly.dat -d Refine_4     
REMARK Files used:                                                              
REMARK   PDB              = Refine_4/pdbchk.pdb                                 
REMARK   MTZ              = /dls/labxchem/data/lb32627/lb32627-1/processing/anal
REMARK   Gelly commands       = /dls/labxchem/data/lb32627/lb32627-1/processing/
REMARK output written to subdirectory = Refine_4                                
REMARK best refinement for F,SIGF with R/Rfree 0.2348/0.3109                    
REMARK header records are copied from input PDB file (apart from REMARK 3!)     
REMARK --------------------- added by autoBUSTER -------------------------------
REMARK --------------------- added by autoBUSTER -------------------------------
REMARK run at   = Tue Apr 25 07:44:22 BST 2023                                  
REMARK     in   = /dls/labxchem/data/lb32627/lb32627-1/processing/analysis/model
REMARK     user = dcn76311                                                      
REMARK     cmd  = \                                                             
REMARK            /dls_sw/apps/GPhL/BUSTER/20230217/autoBUSTER/bin/linux64/refin
REMARK            -p \                                                          
REMARK            /dls/labxchem/data/lb32627/lb32627-1/processing/analysis/model
REMARK            -m \                                                          
REMARK            /dls/labxchem/data/lb32627/lb32627-1/processing/analysis/model
REMARK            -l \                                                          
REMARK            /dls/labxchem/data/lb32627/lb32627-1/processing/analysis/model
REMARK            -autoncs -M TLSbasic -d Refine_3                              
REMARK Files used:                                                              
REMARK   PDB              = Refine_3/pdbchk.pdb                                 
REMARK   MTZ              = /dls/labxchem/data/lb32627/lb32627-1/processing/anal
REMARK output written to subdirectory = Refine_3                                
REMARK best refinement for F,SIGF with R/Rfree 0.2402/0.3130                    
REMARK header records are copied from input PDB file (apart from REMARK 3!)     
REMARK --------------------- added by autoBUSTER -------------------------------
HEADER    ----                                    18-MAY-20                     
TITLE     ---                                                                   
COMPND    ---                                                                   
EXPDTA    X-RAY DIFFRACTION
REMARK   2                                                            
REMARK   2 RESOLUTION.    1.89 ANGSTROMS.
REMARK   3
REMARK   3 REFINEMENT.
REMARK   3   PROGRAM     : BUSTER 2.10.4 (17-FEB-2023)
REMARK   3   AUTHORS     : BRICOGNE,BLANC,BRANDL,FLENSBURG,KELLER,
REMARK   3               : PACIOREK,ROVERSI,SHARFF,SMART,VONRHEIN,WOMACK;
REMARK   3               : MATTHEWS,TEN EYCK,TRONRUD
REMARK   3
REMARK   3  DATA USED IN REFINEMENT.
REMARK   3   RESOLUTION RANGE HIGH (ANGSTROMS) : 1.894
REMARK   3   RESOLUTION RANGE LOW  (ANGSTROMS) : 89.00
REMARK   3   DATA CUTOFF            (SIGMA(F)) : 0.000
REMARK   3   COMPLETENESS FOR RANGE        (%) : 74.5
REMARK   3   NUMBER OF REFLECTIONS             : 18482
REMARK   3
REMARK   3  FIT TO DATA USED IN REFINEMENT.
REMARK   3   CROSS-VALIDATION METHOD          : THROUGHOUT
REMARK   3   FREE R VALUE TEST SET SELECTION  : RANDOM
REMARK   3   R VALUE     (WORKING + TEST SET) : 0.2057
REMARK   3   R VALUE            (WORKING SET) : 0.2026
REMARK   3   FREE R VALUE                     : 0.2675
REMARK   3   FREE R VALUE TEST SET SIZE   (%) : 4.660
REMARK   3   FREE R VALUE TEST SET COUNT      : 862
REMARK   3   ESTIMATED ERROR OF FREE R VALUE  : NULL
REMARK   3
REMARK   3  FIT IN THE HIGHEST RESOLUTION BIN.
REMARK   3   TOTAL NUMBER OF BINS USED           : 44
REMARK   3   BIN RESOLUTION RANGE HIGH       (A) : 1.89
REMARK   3   BIN RESOLUTION RANGE LOW        (A) : 1.92
REMARK   3   BIN COMPLETENESS (WORKING+TEST) (%) : 45.55
REMARK   3   REFLECTIONS IN BIN   (WORKING+TEST) : 430
REMARK   3   BIN R VALUE          (WORKING+TEST) : 0.3208
REMARK   3   REFLECTIONS IN BIN    (WORKING SET) : 409
REMARK   3   BIN R VALUE           (WORKING SET) : 0.3140
REMARK   3   BIN FREE R VALUE                    : 0.4431
REMARK   3   BIN FREE R VALUE TEST SET SIZE  (%) : 4.88
REMARK   3   BIN FREE R VALUE TEST SET COUNT     : 21
REMARK   3   ESTIMATED ERROR OF BIN FREE R VALUE : NULL
REMARK   3
REMARK   3  NUMBER OF NON-HYDROGEN ATOMS USED IN REFINEMENT.
REMARK   3   PROTEIN ATOMS            : 2519
REMARK   3   NUCLEIC ACID ATOMS       : 0
REMARK   3   HETEROGEN ATOMS          : 28
REMARK   3   SOLVENT ATOMS            : 289
REMARK   3
REMARK   3  B VALUES.
REMARK   3   FROM WILSON PLOT           (A**2) : 20.37
REMARK   3   MEAN B VALUE      (OVERALL, A**2) : 27.02
REMARK   3   OVERALL ANISOTROPIC B VALUE.
REMARK   3    B11 (A**2) : 0.74980
REMARK   3    B22 (A**2) : 0.74980
REMARK   3    B33 (A**2) : -1.49970
REMARK   3    B12 (A**2) : 0.00000
REMARK   3    B13 (A**2) : 0.00000
REMARK   3    B23 (A**2) : 0.00000
REMARK   3
REMARK   3  ESTIMATED COORDINATE ERROR.
REMARK   3   ESD FROM LUZZATI PLOT                    (A) : 0.25
REMARK   3   DPI (BLOW EQ-10) BASED ON R VALUE        (A) : 0.301
REMARK   3   DPI (BLOW EQ-9) BASED ON FREE R VALUE    (A) : 0.226
REMARK   3   DPI (CRUICKSHANK) BASED ON R VALUE       (A) : 0.269
REMARK   3   DPI (CRUICKSHANK) BASED ON FREE R VALUE  (A) : 0.219
REMARK   3
REMARK   3   REFERENCES: BLOW, D. (2002) ACTA CRYST D58, 792-797
REMARK   3               CRUICKSHANK, D.W.J. (1999) ACTA CRYST D55, 583-601
REMARK   3
REMARK   3  CORRELATION COEFFICIENTS.
REMARK   3   CORRELATION COEFFICIENT FO-FC      : 0.944
REMARK   3   CORRELATION COEFFICIENT FO-FC FREE : 0.901
REMARK   3
REMARK   3  X-RAY WEIGHT : 7.97
REMARK   3
REMARK   3  GEOMETRY FUNCTION.                                                  
REMARK   3   RESTRAINT LIBRARIES.                                               
REMARK   3    NUMBER OF LIBRARIES USED :   8                                    
REMARK   3    LIBRARY  1 : protgeo_eh99.dat (V1.6.4.20) 20220523  STANDARD      
REMARK   3                 AMINO ACID DICTIONARY. BONDS AND ANGLES FROM         
REMARK   3                 ENGH AND HUBER EH99. OTHER VALUES BASED ON           
REMARK   3                 PREVIOUS TNT OR TAKEN FROM CCP4. INCLUDES            
REMARK   3                 HYDROGEN ATOMS.                                      
REMARK   3    LIBRARY  2 : exoticaa.dat (V1.3.4.16) 20220523  COLLECTION        
REMARK   3                 OF NON-STANDARD AMINO ACIDS, MAINLY EH91             
REMARK   3                 WITHOUT IDEAL DISTANCE INFO                          
REMARK   3    LIBRARY  3 : nuclgeo.dat (V1.13.4.9) 20221011                     
REMARK   3    LIBRARY  4 : bcorrel.dat (V1.15.10.2) 20190616                    
REMARK   3    LIBRARY  5 : contact.dat (V1.15.12.10) 20191121                   
REMARK   3    LIBRARY  6 : idealdist_contact.dat (V1.3.4.13) 20220125           
REMARK   3                 IDEAL-DISTANCE CONTACT TERM DATA AS USED IN          
REMARK   3                 PROLSQ. VALUES USED HERE ARE BASED ON DATA           
REMARK   3                 HARVESTING OF PDB AS OF 20190109.                    
REMARK   3    LIBRARY  7 : restraints for LIG (unknown) from cif                
REMARK   3                 dictionary ASAP-0008348-001.cif; generated by        
REMARK   3                 GRADE 1.2.21 (Feb 03 2022) from SMILES               
REMARK   3                 CNC(=O)c1cc2c(N[C@H](c3ccc4c(c3)OCCO4)C(C)C)ncnc     
REMARK   3                 2[nH]1 using MOGUL 1.8.5(274361), CSD as541be,       
REMARK   3                 with quantum mechanics RM1                           
REMARK   3    LIBRARY  8 : assume.dat (V1.9.4.3) 20221011                       
REMARK   3                                                                      
REMARK   3   NUMBER OF GEOMETRIC FUNCTION TERMS DEFINED : 15                    
REMARK   3   TERM                          COUNT    WEIGHT   FUNCTION.          
REMARK   3    BOND LENGTHS              :   2622 ;   2.00 ;  HARMONIC           
REMARK   3    BOND ANGLES               :   3573 ;   2.00 ;  HARMONIC           
REMARK   3    TORSION ANGLES            :    896 ;   2.00 ;  SINUSOIDAL         
REMARK   3    TRIGONAL CARBON PLANES    :   NULL ;   NULL ;  NULL               
REMARK   3    GENERAL PLANES            :    474 ;   5.00 ;  HARMONIC           
REMARK   3    ISOTROPIC THERMAL FACTORS :   2622 ;  10.00 ;  HARMONIC           
REMARK   3    BAD NON-BONDED CONTACTS   :   NULL ;   NULL ;  NULL               
REMARK   3    IMPROPER TORSIONS         :   NULL ;   NULL ;  NULL               
REMARK   3    PSEUDOROTATION ANGLES     :   NULL ;   NULL ;  NULL               
REMARK   3    CHIRAL IMPROPER TORSION   :    337 ;   5.00 ;  SEMIHARMONIC       
REMARK   3    SUM OF OCCUPANCIES        :   NULL ;   NULL ;  NULL               
REMARK   3    UTILITY DISTANCES         :   NULL ;   NULL ;  NULL               
REMARK   3    UTILITY ANGLES            :   NULL ;   NULL ;  NULL               
REMARK   3    UTILITY TORSION           :   NULL ;   NULL ;  NULL               
REMARK   3    IDEAL-DIST CONTACT TERM   :   2383 ;   4.00 ;  SEMIHARMONIC       
REMARK   3                                                                      
REMARK   3   RMS DEVIATIONS FROM IDEAL VALUES.                                  
REMARK   3   BOND LENGTHS                       (A) : 0.008                     
REMARK   3   BOND ANGLES                  (DEGREES) : 1.01                      
REMARK   3   PEPTIDE OMEGA TORSION ANGLES (DEGREES) : 3.50                      
REMARK   3   OTHER TORSION ANGLES         (DEGREES) : 16.52                     
REMARK   3                                                                      
REMARK   3   SIMILARITY.                                                        
REMARK   3    NCS.                                                              
REMARK   3     NCS METHOD: RESTRAINT LSSR (-AUTONCS)                            
REMARK   3    TARGET RESTRAINTS.                                                
REMARK   3     TARGET REPRESENTATION : NONE                                     
REMARK   3     TARGET STRUCTURE : NULL                                          
REMARK   3                                                                      
REMARK   3  TLS DETAILS.                                                        
REMARK   3   NUMBER OF TLS GROUPS  :            2                               
REMARK   3                                                                      
REMARK   3   TLS GROUP :            1                                           
REMARK   3    SET : { A|* }                                                     
REMARK   3    ORIGIN FOR THE GROUP (A):    4.0402   21.5330   -0.5514           
REMARK   3    T TENSOR                                                          
REMARK   3     T11:   -0.0842 T22:   -0.0752                                    
REMARK   3     T33:    0.0887 T12:   -0.0004                                    
REMARK   3     T13:   -0.0333 T23:    0.0192                                    
REMARK   3    L TENSOR                                                          
REMARK   3     L11:    0.9964 L22:    1.2803                                    
REMARK   3     L33:    0.3107 L12:   -0.1816                                    
REMARK   3     L13:    0.0046 L23:   -0.0475                                    
REMARK   3    S TENSOR                                                          
REMARK   3     S11:    0.0104 S12:   -0.0363 S13:   -0.0661                     
REMARK   3     S21:   -0.0446 S22:   -0.0042 S23:    0.0009                     
REMARK   3     S31:    0.0442 S32:    0.0123 S33:   -0.0062                     
REMARK   3                                                                      
REMARK   3   TLS GROUP :            2                                           
REMARK   3    SET : { B|* }                                                     
REMARK   3    ORIGIN FOR THE GROUP (A):   22.4072   43.2958   -7.6371           
REMARK   3    T TENSOR                                                          
REMARK   3     T11:   -0.0840 T22:   -0.0628                                    
REMARK   3     T33:    0.0313 T12:    0.0009                                    
REMARK   3     T13:   -0.0201 T23:   -0.0148                                    
REMARK   3    L TENSOR                                                          
REMARK   3     L11:    1.9827 L22:    1.6651                                    
REMARK   3     L33:    0.4961 L12:   -0.8537                                    
REMARK   3     L13:   -0.5779 L23:    0.1055                                    
REMARK   3    S TENSOR                                                          
REMARK   3     S11:    0.0636 S12:   -0.0586 S13:   -0.0027                     
REMARK   3     S21:   -0.0229 S22:   -0.0430 S23:   -0.1582                     
REMARK   3     S31:   -0.0578 S32:    0.0509 S33:   -0.0206                     
REMARK   3                                                                      
REMARK   3  REFINEMENT NOTES.                                                   
REMARK   3   NUMBER OF REFINEMENT NOTES :   1                                   
REMARK   3   NOTE   1 : IDEAL-DIST CONTACT TERM CONTACT SETUP. ALL ATOMS        
REMARK   3               HAVE CCP4 ATOM TYPE FROM LIBRARY                       
REMARK   3
REMARK   3  OTHER REFINEMENT REMARKS: NULL
REMARK   3
REMARK 290                                                            
REMARK 290 CRYSTALLOGRAPHIC SYMMETRY                                  
REMARK 290 SYMMETRY OPERATORS FOR SPACE GROUP: P 43                   
REMARK 290                                                            
REMARK 290      SYMOP   SYMMETRY                                      
REMARK 290     NNNMMM   OPERATOR                                      
REMARK 290       1555   X,Y,Z                                         
REMARK 290       2555   -X,-Y,1/2+Z                                   
REMARK 290       3555   -Y,X,3/4+Z                                    
REMARK 290       4555   Y,-X,1/4+Z                                    
REMARK 290                                                            
REMARK 290     WHERE NNN -> OPERATOR NUMBER                           
REMARK 290           MMM -> TRANSLATION VECTOR                        
REMARK 290                                                            
REMARK 290 CRYSTALLOGRAPHIC SYMMETRY TRANSFORMATIONS                  
REMARK 290 THE FOLLOWING TRANSFORMATIONS OPERATE ON THE ATOM/HETATM   
REMARK 290 RECORDS IN THIS ENTRY TO PRODUCE CRYSTALLOGRAPHICALLY      
REMARK 290 RELATED MOLECULES.                                         
REMARK 290   SMTRY1   1  1.000000  0.000000  0.000000        0.00000
REMARK 290   SMTRY2   1  0.000000  1.000000  0.000000        0.00000
REMARK 290   SMTRY3   1  0.000000  0.000000  1.000000        0.00000
REMARK 290   SMTRY1   2 -1.000000  0.000000  0.000000        0.00000
REMARK 290   SMTRY2   2  0.000000 -1.000000  0.000000        0.00000
REMARK 290   SMTRY3   2  0.000000  0.000000  1.000000       19.61600
REMARK 290   SMTRY1   3  0.000000 -1.000000  0.000000        0.00000
REMARK 290   SMTRY2   3  1.000000  0.000000  0.000000        0.00000
REMARK 290   SMTRY3   3  0.000000  0.000000  1.000000       29.42400
REMARK 290   SMTRY1   4  0.000000  1.000000  0.000000        0.00000
REMARK 290   SMTRY2   4 -1.000000  0.000000  0.000000        0.00000
REMARK 290   SMTRY3   4  0.000000  0.000000  1.000000        9.80800
REMARK 290                                                            
REMARK 290 REMARK: NULL                                               
CRYST1   88.995   88.995   39.232  90.00  90.00  90.00 P 43           


$$$$
