A71EV2A-x0554_A_201_1_A71EV2A-x0526+A+147+1
     RDKit          3D

 13 14  0  0  0  0  0  0  0  0999 V2000
   10.5020   14.0750   24.6680 O   0  0  0  0  0  0  0  0  0  0  0  0
   10.6150   13.7870   23.4880 C   0  0  0  0  0  0  0  0  0  0  0  0
   11.4300   14.6220   22.5400 C   0  0  0  0  0  0  0  0  0  0  0  0
   10.0520   12.6760   22.9470 N   0  0  0  0  0  0  0  0  0  0  0  0
    9.2170   11.7220   23.5610 C   0  0  0  0  0  0  0  0  0  0  0  0
    8.1860   12.0430   24.4580 C   0  0  0  0  0  0  0  0  0  0  0  0
    7.7620   13.2580   24.9360 N   0  0  0  0  0  0  0  0  0  0  0  0
    6.6790   13.0550   25.7540 C   0  0  0  0  0  0  0  0  0  0  0  0
    6.3930   11.7320   25.8280 C   0  0  0  0  0  0  0  0  0  0  0  0
    7.3380   11.0510   24.9990 C   0  0  0  0  0  0  0  0  0  0  0  0
    7.5350    9.7260   24.6150 C   0  0  0  0  0  0  0  0  0  0  0  0
    8.5700    9.4020   23.7580 C   0  0  0  0  0  0  0  0  0  0  0  0
    9.3910   10.3810   23.2350 C   0  0  0  0  0  0  0  0  0  0  0  0
  3  2  1  0
  2  1  2  0
  4  2  1  0
  5  4  1  0
  5 13  2  0
 13 12  1  0
 12 11  2  0
 11 10  1  0
 10  9  1  0
  9  8  2  0
  8  7  1  0
  7  6  1  0
  6  5  1  0
 10  6  2  0
M  END
