XX01ZVNS2B-x1390_B_301_XX01ZVNS2B-x1291+B+301+1
     RDKit          3D

 29 32  0  0  0  0  0  0  0  0999 V2000
   -7.8070    8.6760  -13.3960 C   0  0  0  0  0  0  0  0  0  0  0  0
   -9.4010    8.1050  -12.9380 S   0  0  0  0  0  0  0  0  0  0  0  0
  -10.0030    7.4560  -14.0670 O   0  0  0  0  0  0  0  0  0  0  0  0
  -10.1150    9.1900  -12.3370 O   0  0  0  0  0  0  0  0  0  0  0  0
   -9.1000    6.8590  -11.7150 C   0  0  0  0  0  0  0  0  0  0  0  0
   -9.1690    7.1870  -10.3660 C   0  0  0  0  0  0  0  0  0  0  0  0
   -8.9500    6.2180   -9.3990 C   0  0  0  0  0  0  0  0  0  0  0  0
   -8.6430    4.8970   -9.7660 C   0  0  0  0  0  0  0  0  0  0  0  0
   -8.4240    3.9060   -8.8190 N   0  0  0  0  0  0  0  0  0  0  0  0
   -7.9870    4.2840   -7.4690 C   0  0  0  0  0  0  0  0  0  0  0  0
   -9.0530    3.9600   -6.4420 C   0  0  0  0  0  0  0  0  0  0  0  0
   -9.2470    2.5180   -6.3310 N   0  0  0  0  0  0  0  0  0  0  0  0
   -9.1460    1.8550   -7.6340 C   0  0  0  0  0  0  0  0  0  0  0  0
   -9.3760    2.7910   -8.8090 C   0  0  0  0  0  0  0  0  0  0  0  0
   -8.5850    4.5690  -11.1240 C   0  0  0  0  0  0  0  0  0  0  0  0
   -8.8200    5.5390  -12.0900 C   0  0  0  0  0  0  0  0  0  0  0  0
   -8.7360    5.1800  -13.4540 N   0  0  0  0  0  0  0  0  0  0  0  0
   -7.6480    5.3950  -14.2340 C   0  0  0  0  0  0  0  0  0  0  0  0
   -6.6040    5.8500  -13.7890 O   0  0  0  0  0  0  0  0  0  0  0  0
   -7.7790    5.0830  -15.6980 C   0  0  0  0  0  0  0  0  0  0  0  0
   -9.0160    5.0240  -16.2910 C   0  0  0  0  0  0  0  0  0  0  0  0
   -9.1510    4.7620  -17.6710 C   0  0  0  0  0  0  0  0  0  0  0  0
   -8.0490    4.5760  -18.4520 C   0  0  0  0  0  0  0  0  0  0  0  0
   -6.7560    4.6440  -17.8910 C   0  0  0  0  0  0  0  0  0  0  0  0
   -5.6840    4.4410  -18.7190 N   0  0  0  0  0  0  0  0  0  0  0  0
   -4.4800    4.5010  -18.1800 C   0  0  0  0  0  0  0  0  0  0  0  0
   -4.2280    4.7560  -16.8190 C   0  0  0  0  0  0  0  0  0  0  0  0
   -5.2840    4.9530  -15.9820 C   0  0  0  0  0  0  0  0  0  0  0  0
   -6.6070    4.8960  -16.4950 C   0  0  0  0  0  0  0  0  0  0  0  0
  1  2  1  0
  2  3  2  0
  2  4  2  0
  2  5  1  0
  5  6  2  0
  6  7  1  0
  7  8  2  0
  8  9  1  0
  9 10  1  0
 10 11  1  0
 11 12  1  0
 12 13  1  0
 13 14  1  0
  8 15  1  0
 15 16  2  0
 16 17  1  0
 17 18  1  0
 18 19  2  0
 18 20  1  0
 20 21  2  0
 21 22  1  0
 22 23  2  0
 23 24  1  0
 24 25  2  0
 25 26  1  0
 26 27  2  0
 27 28  1  0
 28 29  2  0
  5 16  1  0
 20 29  1  0
  9 14  1  0
 24 29  1  0
M  END
