A71EV2A-x0875_A_201_1_A71EV2A-x0526+A+147+1
     RDKit          3D

 14 14  0  0  0  0  0  0  0  0999 V2000
   15.3870   11.8520   24.2920 O   0  0  0  0  0  0  0  0  0  0  0  0
   14.3880   11.2760   24.5760 C   0  0  0  0  0  0  0  0  0  0  0  0
   14.3350   10.1740   25.2740 O   0  0  0  0  0  0  0  0  0  0  0  0
   13.0790   11.8920   24.1940 C   0  0  0  0  0  0  0  0  0  0  0  0
   12.8940   13.1220   25.0630 C   0  0  0  0  0  0  0  0  0  0  0  0
   11.5600   13.1010   25.7530 C   0  0  0  0  0  0  0  0  0  0  0  0
   11.8740   10.9720   24.3010 C   0  0  0  0  0  0  0  0  0  0  0  0
   10.6750   11.7990   23.8680 C   0  0  0  0  0  0  0  0  0  0  0  0
   10.5420   13.0140   24.6970 N   0  0  0  0  0  0  0  0  0  0  0  0
    9.1360   13.7680   24.9940 S   0  0  0  0  0  0  0  0  0  0  0  0
    9.0170   14.8110   24.0220 O   0  0  0  0  0  0  0  0  0  0  0  0
    9.1440   14.1180   26.3780 O   0  0  0  0  0  0  0  0  0  0  0  0
    7.8370   12.5800   24.6710 C   0  0  0  0  0  0  0  0  0  0  0  0
    7.9120   11.3540   25.5120 C   0  0  0  0  0  0  0  0  0  0  0  0
 14 13  1  0
 13 10  1  0
 11 10  2  0
 12 10  2  0
 10  9  1  0
  9  6  1  0
  6  5  1  0
  5  4  1  0
  7  4  1  0
  8  7  1  0
  9  8  1  0
  4  2  1  0
  2  1  2  0
  3  2  1  0
M  END
