Mpro-x1101_1A
     RDKit          3D

 15 16  0  0  0  0  0  0  0  0999 V2000
   28.3030   21.8000   -2.1810 N   0  0  0  0  0  0  0  0  0  0  0  0
   27.7010   23.3480   -4.0810 C   0  0  0  0  0  0  0  0  0  0  0  0
   28.8290   22.5010   -3.4260 C   0  0  1  0  0  0  0  0  0  0  0  0
   30.0830   23.3830   -3.1950 C   0  0  0  0  0  0  0  0  0  0  0  0
   28.4840   22.5050   -0.8870 C   0  0  0  0  0  0  0  0  0  0  0  0
   28.1560   20.3650   -2.1880 C   0  0  0  0  0  0  0  0  0  0  0  0
   27.9210   18.3680   -3.4570 C   0  0  0  0  0  0  0  0  0  0  0  0
   28.1240   18.1140   -1.2120 C   0  0  0  0  0  0  0  0  0  0  0  0
   28.1800   16.0800    0.3420 C   0  0  0  0  0  0  0  0  0  0  0  0
   28.3250   19.6760    0.4440 C   0  0  0  0  0  0  0  0  0  0  0  0
   28.2130   19.5420   -1.0000 C   0  0  0  0  0  0  0  0  0  0  0  0
   27.9960   19.7420   -3.4110 N   0  0  0  0  0  0  0  0  0  0  0  0
   27.9820   17.4850   -2.4400 N   0  0  0  0  0  0  0  0  0  0  0  0
   28.1940   17.5200    0.0550 N   0  0  0  0  0  0  0  0  0  0  0  0
   28.3100   18.4670    1.0470 N   0  0  0  0  0  0  0  0  0  0  0  0
  3  2  1  1
  3  1  1  0
  4  3  1  0
  5  1  1  0
  6  1  1  0
 11 10  1  0
 11  8  1  0
 11  6  1  0
 12  7  1  0
 12  6  1  0
 13  8  1  0
 13  7  1  0
 14  9  1  0
 14  8  1  0
 15 14  1  0
 15 10  1  0
M  END
$$$$
Mpro-x0072_0A
     RDKit          3D

 13 13  0  0  0  0  0  0  0  0999 V2000
    6.5650   -5.0400   26.5740 C   0  0  0  0  0  0  0  0  0  0  0  0
    9.4510   -3.1150   24.1690 C   0  0  0  0  0  0  0  0  0  0  0  0
    9.3510   -1.8310   23.3570 C   0  0  0  0  0  0  0  0  0  0  0  0
   10.7480   -1.2320   23.4040 C   0  0  0  0  0  0  0  0  0  0  0  0
   11.0590   -0.1920   24.2710 C   0  0  0  0  0  0  0  0  0  0  0  0
   12.3510    0.3080   24.2960 C   0  0  0  0  0  0  0  0  0  0  0  0
   13.3280   -0.2450   23.4840 C   0  0  0  0  0  0  0  0  0  0  0  0
   13.0140   -1.2930   22.6280 C   0  0  0  0  0  0  0  0  0  0  0  0
   11.7240   -1.7830   22.5970 C   0  0  0  0  0  0  0  0  0  0  0  0
    8.1960   -3.6200   24.6640 N   0  0  0  0  0  0  0  0  0  0  0  0
    9.2100   -5.5390   26.1600 O   0  0  0  0  0  0  0  0  0  0  0  0
    8.7770   -3.6120   27.2020 O   0  0  0  0  0  0  0  0  0  0  0  0
    8.2270   -4.4510   26.1510 S   0  0  2  0  0  0  0  0  0  0  0  0
  3  2  1  0
  4  3  1  0
  5  4  1  0
  6  5  1  0
  7  6  1  0
  8  7  1  0
  9  4  1  0
  9  8  1  0
 10  2  1  0
 13 11  1  0
 13 12  1  0
 13 10  1  0
 13  1  1  1
M  END
$$$$
Mpro-x0104_0A
     RDKit          3D

 16 17  0  0  0  0  0  0  0  0999 V2000
    9.1840    6.1610   22.6700 C   0  0  0  0  0  0  0  0  0  0  0  0
   10.4650    5.8560   23.4370 C   0  0  0  0  0  0  0  0  0  0  0  0
   12.8550    4.9860   23.3950 C   0  0  0  0  0  0  0  0  0  0  0  0
   13.2290    3.5570   22.9930 C   0  0  0  0  0  0  0  0  0  0  0  0
   12.2400    2.4750   23.4550 C   0  0  0  0  0  0  0  0  0  0  0  0
   11.1170    2.6540   24.2470 C   0  0  0  0  0  0  0  0  0  0  0  0
   11.2140    0.5030   23.7510 C   0  0  0  0  0  0  0  0  0  0  0  0
   10.9820   -0.8920   23.6260 C   0  0  0  0  0  0  0  0  0  0  0  0
   11.8610   -1.6720   22.8790 C   0  0  0  0  0  0  0  0  0  0  0  0
   12.9660   -1.0800   22.2570 C   0  0  0  0  0  0  0  0  0  0  0  0
   13.1920    0.2890   22.3870 C   0  0  0  0  0  0  0  0  0  0  0  0
   12.2980    1.0920   23.1460 C   0  0  0  0  0  0  0  0  0  0  0  0
   13.8310   -1.8370   21.5240 F   0  0  0  0  0  0  0  0  0  0  0  0
   11.6140    5.3230   22.7250 N   0  0  0  0  0  0  0  0  0  0  0  0
   10.5240    1.4790   24.4090 N   0  0  0  0  0  0  0  0  0  0  0  0
   10.5070    6.0440   24.6010 O   0  0  0  0  0  0  0  0  0  0  0  0
  2  1  1  0
  4  3  1  0
  5  4  1  0
  6  5  1  0
  8  7  1  0
  9  8  1  0
 10  9  1  0
 11 10  1  0
 12 11  1  0
 12  7  1  0
 12  5  1  0
 13 10  1  0
 14  2  1  0
 14  3  1  0
 15  7  1  0
 15  6  1  0
 16  2  1  0
M  END
$$$$
Mpro-x0107_0A
     RDKit          3D

 11 11  0  0  0  0  0  0  0  0999 V2000
   10.1780   -0.7290   22.5700 C   0  0  0  0  0  0  0  0  0  0  0  0
    9.2820   -0.1030   21.5030 C   0  0  0  0  0  0  0  0  0  0  0  0
    7.1790   -0.1530   20.1080 C   0  0  0  0  0  0  0  0  0  0  0  0
    7.5510   -0.2150   18.7710 C   0  0  0  0  0  0  0  0  0  0  0  0
    5.6690    0.9130   18.1140 C   0  0  0  0  0  0  0  0  0  0  0  0
    5.2170    1.0310   19.4220 C   0  0  0  0  0  0  0  0  0  0  0  0
    5.9870    0.4820   20.4470 C   0  0  0  0  0  0  0  0  0  0  0  0
    5.5470    0.5830   21.9050 C   0  0  0  0  0  0  0  0  0  0  0  0
    8.0330   -0.7430   21.1270 N   0  0  0  0  0  0  0  0  0  0  0  0
    6.7980    0.3080   17.8220 N   0  0  0  0  0  0  0  0  0  0  0  0
    9.6090    0.9110   20.9910 O   0  0  0  0  0  0  0  0  0  0  0  0
  2  1  1  0
  4  3  1  0
  6  5  1  0
  7  6  1  0
  7  3  1  0
  8  7  1  0
  9  3  1  0
  9  2  1  0
 10  5  1  0
 10  4  1  0
 11  2  1  0
M  END
$$$$
Mpro-x0161_0A
     RDKit          3D

 14 14  0  0  0  0  0  0  0  0999 V2000
   13.7430   -2.4780   24.3190 C   0  0  0  0  0  0  0  0  0  0  0  0
   13.3830   -0.2440   23.5370 C   0  0  0  0  0  0  0  0  0  0  0  0
   12.6290    1.0810   23.6240 C   0  0  0  0  0  0  0  0  0  0  0  0
   11.4120    1.1530   24.2860 C   0  0  0  0  0  0  0  0  0  0  0  0
   10.7410    2.3660   24.3680 C   0  0  0  0  0  0  0  0  0  0  0  0
   11.2950    3.4990   23.7830 C   0  0  0  0  0  0  0  0  0  0  0  0
   12.5130    3.4240   23.1210 C   0  0  0  0  0  0  0  0  0  0  0  0
   13.1780    2.2150   23.0460 C   0  0  0  0  0  0  0  0  0  0  0  0
    9.0160    5.0730   22.9390 N   0  0  0  0  0  0  0  0  0  0  0  0
   13.2610   -1.1810   24.5730 O   0  0  0  0  0  0  0  0  0  0  0  0
   14.0780   -0.4590   22.6070 O   0  0  0  0  0  0  0  0  0  0  0  0
   11.3170    6.1920   23.4770 O   0  0  0  0  0  0  0  0  0  0  0  0
   10.1520    5.4220   25.2810 O   0  0  0  0  0  0  0  0  0  0  0  0
   10.4380    5.0900   23.8840 S   0  0  2  0  0  0  0  0  0  0  0  0
  3  2  1  0
  4  3  1  0
  5  4  1  0
  6  5  1  0
  7  6  1  0
  8  7  1  0
  8  3  1  0
 10  2  1  0
 10  1  1  0
 11  2  1  0
 14 13  1  0
 14  9  1  6
 14  6  1  0
 14 12  1  0
M  END
$$$$
Mpro-x0165_0A
     RDKit          3D

 16 17  0  0  0  0  0  0  0  0999 V2000
   23.1260  -17.6020   24.2230 C   0  0  0  0  0  0  0  0  0  0  0  0
   22.0290  -19.5460   24.0700 C   0  0  0  0  0  0  0  0  0  0  0  0
   22.1390  -21.0380   23.7210 C   0  0  0  0  0  0  0  0  0  0  0  0
   24.0300  -20.5580   22.4240 C   0  0  0  0  0  0  0  0  0  0  0  0
   23.8460  -19.0710   22.6910 C   0  0  0  0  0  0  0  0  0  0  0  0
   22.2690  -22.1920   21.4700 C   0  0  0  0  0  0  0  0  0  0  0  0
   22.4170  -23.3040   19.1980 C   0  0  0  0  0  0  0  0  0  0  0  0
   22.0560  -24.6060   19.5030 C   0  0  0  0  0  0  0  0  0  0  0  0
   21.5620  -25.4390   18.5080 C   0  0  0  0  0  0  0  0  0  0  0  0
   21.4320  -24.9740   17.2060 C   0  0  0  0  0  0  0  0  0  0  0  0
   21.7980  -23.6670   16.8980 C   0  0  0  0  0  0  0  0  0  0  0  0
   22.2940  -22.8360   17.8940 C   0  0  0  0  0  0  0  0  0  0  0  0
   23.2310  -18.8340   23.9260 N   0  0  0  0  0  0  0  0  0  0  0  0
   22.8040  -21.2900   22.4880 N   0  0  0  0  0  0  0  0  0  0  0  0
   22.9540  -22.4170   20.2140 N   0  0  0  0  0  0  0  0  0  0  0  0
   21.2360  -22.7360   21.6600 O   0  0  0  0  0  0  0  0  0  0  0  0
  3  2  1  0
  5  4  1  0
  8  7  1  0
  9  8  1  0
 10  9  1  0
 11 10  1  0
 12 11  1  0
 12  7  1  0
 13  5  1  0
 13  2  1  0
 13  1  1  0
 14  6  1  0
 14  4  1  0
 14  3  1  0
 15  7  1  0
 15  6  1  0
 16  6  1  0
M  END
$$$$
Mpro-x0177_0A
     RDKit          3D

 18 19  0  0  0  0  0  0  0  0999 V2000
   24.6120  -17.8080   25.4800 C   0  0  0  0  0  0  0  0  0  0  0  0
   24.0980  -18.8480   24.4730 C   0  0  2  0  0  0  0  0  0  0  0  0
   24.8470  -18.8820   23.1970 C   0  0  0  0  0  0  0  0  0  0  0  0
   24.4510  -20.1030   22.3600 C   0  0  0  0  0  0  0  0  0  0  0  0
   22.2270  -20.0620   23.6440 C   0  0  0  0  0  0  0  0  0  0  0  0
   22.6780  -18.6970   24.1370 C   0  0  0  0  0  0  0  0  0  0  0  0
   22.4420  -21.7370   21.7540 C   0  0  0  0  0  0  0  0  0  0  0  0
   22.5540  -23.4260   19.8810 C   0  0  0  0  0  0  0  0  0  0  0  0
   22.4610  -23.2510   18.5140 C   0  0  0  0  0  0  0  0  0  0  0  0
   21.9000  -24.2460   17.7240 C   0  0  0  0  0  0  0  0  0  0  0  0
   21.4360  -25.4170   18.3130 C   0  0  0  0  0  0  0  0  0  0  0  0
   21.5320  -25.5920   19.6880 C   0  0  0  0  0  0  0  0  0  0  0  0
   22.0920  -24.5960   20.4740 C   0  0  0  0  0  0  0  0  0  0  0  0
   23.8190  -16.6800   25.9560 N   0  0  0  0  0  0  0  0  0  0  0  0
   23.0480  -20.6620   22.5400 N   0  0  0  0  0  0  0  0  0  0  0  0
   23.1560  -22.3700   20.6630 N   0  0  0  0  0  0  0  0  0  0  0  0
   25.6980  -17.9500   25.9220 O   0  0  0  0  0  0  0  0  0  0  0  0
   21.3360  -22.0910   22.0070 O   0  0  0  0  0  0  0  0  0  0  0  0
  2  1  1  1
  3  2  1  0
  4  3  1  0
  6  5  1  0
  6  2  1  0
  9  8  1  0
 10  9  1  0
 11 10  1  0
 12 11  1  0
 13 12  1  0
 13  8  1  0
 14  1  1  0
 15  7  1  0
 15  5  1  0
 15  4  1  0
 16  8  1  0
 16  7  1  0
 17  1  1  0
 18  7  1  0
M  END
$$$$
Mpro-x0194_0A
     RDKit          3D

 17 18  0  0  0  0  0  0  0  0999 V2000
   24.9020  -14.7780   24.8190 C   0  0  0  0  0  0  0  0  0  0  0  0
   24.0280  -15.1140   26.0320 C   0  0  0  0  0  0  0  0  0  0  0  0
   23.5450  -17.4390   25.1620 C   0  0  0  0  0  0  0  0  0  0  0  0
   24.7980  -18.0250   25.1470 C   0  0  0  0  0  0  0  0  0  0  0  0
   25.0700  -19.0580   24.2780 C   0  0  0  0  0  0  0  0  0  0  0  0
   24.1000  -19.5010   23.3950 C   0  0  2  0  0  0  0  0  0  0  0  0
   24.2930  -20.7060   21.2140 C   0  0  1  0  0  0  0  0  0  0  0  0
   24.7820  -20.1300   19.0570 C   0  0  0  0  0  0  0  0  0  0  0  0
   23.9470  -21.1480   18.5930 C   0  0  0  0  0  0  0  0  0  0  0  0
   23.3050  -21.9510   19.5350 C   0  0  0  0  0  0  0  0  0  0  0  0
   22.8280  -18.9410   23.4280 C   0  0  0  0  0  0  0  0  0  0  0  0
   22.5460  -17.8980   24.3090 C   0  0  0  0  0  0  0  0  0  0  0  0
   23.3610  -16.3920   26.1440 N   0  0  0  0  0  0  0  0  0  0  0  0
   24.9400  -19.9330   20.3540 N   0  0  0  0  0  0  0  0  0  0  0  0
   23.5200  -21.7050   20.8100 N   0  0  0  0  0  0  0  0  0  0  0  0
   23.8570  -14.3140   26.8880 O   0  0  0  0  0  0  0  0  0  0  0  0
   24.4820  -20.5810   22.5970 O   0  0  0  0  0  0  0  0  0  0  0  0
  2  1  1  0
  4  3  1  0
  5  4  1  0
  6  5  1  0
  9  8  1  0
 10  9  1  0
 11  6  1  0
 12 11  1  0
 12  3  1  0
 13  3  1  0
 13  2  1  0
 14  8  1  0
 14  7  1  0
 15 10  1  0
 15  7  1  0
 16  2  1  0
  7 17  1  1
  6 17  1  1
M  END
$$$$
Mpro-x0195_0A
     RDKit          3D

 15 16  0  0  0  0  0  0  0  0999 V2000
   10.0720   -0.4900   24.9250 C   0  0  0  0  0  0  0  0  0  0  0  0
   11.8520   -1.6700   23.6760 C   0  0  0  0  0  0  0  0  0  0  0  0
   12.8600   -1.5610   22.5710 C   0  0  0  0  0  0  0  0  0  0  0  0
   13.8160   -0.4120   22.8180 C   0  0  0  0  0  0  0  0  0  0  0  0
   13.0440    0.9210   23.0580 C   0  0  0  0  0  0  0  0  0  0  0  0
   13.5990    2.1520   22.6570 C   0  0  0  0  0  0  0  0  0  0  0  0
   12.8930    3.3390   22.8670 C   0  0  0  0  0  0  0  0  0  0  0  0
   11.6240    3.2760   23.4760 C   0  0  0  0  0  0  0  0  0  0  0  0
   11.0700    2.0630   23.8680 C   0  0  0  0  0  0  0  0  0  0  0  0
   11.7810    0.8660   23.6530 C   0  0  0  0  0  0  0  0  0  0  0  0
   11.2200   -0.4400   24.0530 N   0  0  0  0  0  0  0  0  0  0  0  0
   11.6530    6.1490   23.5160 N   0  0  0  0  0  0  0  0  0  0  0  0
   10.1710    4.6960   25.1450 O   0  0  0  0  0  0  0  0  0  0  0  0
    9.4350    4.8220   23.0100 O   0  0  0  0  0  0  0  0  0  0  0  0
   10.6790    4.7780   23.7810 S   0  0  2  0  0  0  0  0  0  0  0  0
  3  2  1  0
  4  3  1  0
  5  4  1  0
  6  5  1  0
  7  6  1  0
  8  7  1  0
  9  8  1  0
 10  9  1  0
 10  5  1  0
 11  1  1  0
 11 10  1  0
 11  2  1  0
 15 14  1  0
 15 13  1  0
 15  8  1  0
 15 12  1  1
M  END
$$$$
Mpro-x0305_0A
     RDKit          3D

 11 11  0  0  0  0  0  0  0  0999 V2000
    8.5340   -0.0770   27.4360 C   0  0  0  0  0  0  0  0  0  0  0  0
    9.0890   -0.6240   26.1390 C   0  0  0  0  0  0  0  0  0  0  0  0
   11.0500   -0.2610   24.6290 C   0  0  0  0  0  0  0  0  0  0  0  0
   10.6940   -1.3910   23.9040 C   0  0  0  0  0  0  0  0  0  0  0  0
   11.4810   -1.8050   22.8480 C   0  0  0  0  0  0  0  0  0  0  0  0
   12.6130   -1.0720   22.5400 C   0  0  0  0  0  0  0  0  0  0  0  0
   13.5050   -1.5120   21.3870 C   0  0  0  0  0  0  0  0  0  0  0  0
   12.9120    0.0500   23.3100 C   0  0  0  0  0  0  0  0  0  0  0  0
   10.2250    0.1790   25.7280 N   0  0  0  0  0  0  0  0  0  0  0  0
   14.1860   -1.8150   20.5300 N   0  0  0  0  0  0  0  0  0  0  0  0
   12.1330    0.4270   24.3230 N   0  0  0  0  0  0  0  0  0  0  0  0
  2  1  1  0
  4  3  1  0
  5  4  1  0
  6  5  1  0
  7  6  1  0
  8  6  1  0
  9  2  1  0
  9  3  1  0
 10  7  1  0
 11  8  1  0
 11  3  1  0
M  END
$$$$
Mpro-x0336_0A
     RDKit          3D

 15 15  0  0  0  0  0  0  0  0999 V2000
    5.5500  -30.1100   10.7230 C   0  0  0  0  0  0  0  0  0  0  0  0
    5.0160  -29.9100    9.3040 C   0  0  0  0  0  0  0  0  0  0  0  0
    5.3260  -27.3840    9.3550 C   0  0  0  0  0  0  0  0  0  0  0  0
    4.3820  -26.1960    9.3200 C   0  0  1  0  0  0  0  0  0  0  0  0
    3.9370  -25.6230   10.5020 C   0  0  0  0  0  0  0  0  0  0  0  0
    3.1030  -24.5190   10.4520 C   0  0  0  0  0  0  0  0  0  0  0  0
    2.7300  -23.9910    9.2270 C   0  0  0  0  0  0  0  0  0  0  0  0
    3.1860  -24.5590    8.0600 C   0  0  0  0  0  0  0  0  0  0  0  0
    4.0130  -25.6560    8.1120 C   0  0  0  0  0  0  0  0  0  0  0  0
    4.8940  -28.5970    8.6740 N   0  0  0  0  0  0  0  0  0  0  0  0
    1.9060  -21.7100    7.6490 N   0  0  0  0  0  0  0  0  0  0  0  0
    4.6640  -30.8680    8.7040 O   0  0  0  0  0  0  0  0  0  0  0  0
    1.8220  -21.6370   10.2300 O   0  0  0  0  0  0  0  0  0  0  0  0
    0.2320  -22.9350    9.2450 O   0  0  0  0  0  0  0  0  0  0  0  0
    1.6390  -22.5500    9.1060 S   0  0  2  0  0  0  0  0  0  0  0  0
  2  1  1  0
  4  3  1  1
  5  4  1  0
  6  5  1  0
  7  6  1  0
  8  7  1  0
  9  8  1  0
  9  4  1  0
 10  3  1  0
 10  2  1  0
 12  2  1  0
 15 14  1  0
 15  7  1  0
 15 13  1  0
 15 11  1  6
M  END
$$$$
Mpro-x0350_0A
     RDKit          3D

 15 16  0  0  0  0  0  0  0  0999 V2000
   11.0290  -25.7990    3.3720 C   0  0  0  0  0  0  0  0  0  0  0  0
   12.1620  -25.0090    3.4560 C   0  0  0  0  0  0  0  0  0  0  0  0
   12.4500  -24.0900    2.4510 C   0  0  0  0  0  0  0  0  0  0  0  0
   11.5990  -23.9560    1.3760 C   0  0  0  0  0  0  0  0  0  0  0  0
   10.4540  -24.7500    1.3000 C   0  0  0  0  0  0  0  0  0  0  0  0
    9.4820  -24.6370    0.0830 C   0  0  0  0  0  0  0  0  0  0  0  0
    8.0850  -23.2610   -1.2140 C   0  0  0  0  0  0  0  0  0  0  0  0
    7.2660  -21.9630   -1.2520 C   0  0  0  0  0  0  0  0  0  0  0  0
    7.6170  -20.7710   -1.8820 C   0  0  0  0  0  0  0  0  0  0  0  0
    6.5870  -19.8680   -1.6630 C   0  0  0  0  0  0  0  0  0  0  0  0
    5.5980  -20.5420   -0.8890 C   0  0  0  0  0  0  0  0  0  0  0  0
   10.1730  -25.6710    2.2950 C   0  0  0  0  0  0  0  0  0  0  0  0
   10.7330  -26.6950    4.3360 F   0  0  0  0  0  0  0  0  0  0  0  0
    9.0080  -23.2560   -0.1450 N   0  0  0  0  0  0  0  0  0  0  0  0
    6.0330  -21.7780   -0.6740 O   0  0  0  0  0  0  0  0  0  0  0  0
  2  1  1  0
  3  2  1  0
  4  3  1  0
  5  4  1  0
  6  5  1  0
  8  7  1  0
  9  8  1  0
 10  9  1  0
 11 10  1  0
 12  5  1  0
 12  1  1  0
 13  1  1  0
 14  7  1  0
 14  6  1  0
 15  8  1  0
 15 11  1  0
M  END
$$$$
Mpro-x0354_0A
     RDKit          3D

 18 19  0  0  0  0  0  0  0  0999 V2000
   13.2790   -1.1100   22.5510 C   0  0  0  0  0  0  0  0  0  0  0  0
    7.3460    2.6880   29.3200 C   0  0  0  0  0  0  0  0  0  0  0  0
    6.1340    2.5890   29.9750 C   0  0  0  0  0  0  0  0  0  0  0  0
    5.6280    3.7020   30.8450 C   0  0  0  0  0  0  0  0  0  0  0  0
    5.4040    1.4270   29.8130 C   0  0  0  0  0  0  0  0  0  0  0  0
    5.8590    0.3840   29.0200 C   0  0  0  0  0  0  0  0  0  0  0  0
   11.7750   -0.1770   24.1860 C   0  0  0  0  0  0  0  0  0  0  0  0
   11.0660   -0.4520   25.4900 C   0  0  0  0  0  0  0  0  0  0  0  0
   10.7250   -2.7630   24.7710 C   0  0  0  0  0  0  0  0  0  0  0  0
   11.4990   -2.4350   23.5120 C   0  0  0  0  0  0  0  0  0  0  0  0
    8.8410   -1.4930   25.7840 C   0  0  0  0  0  0  0  0  0  0  0  0
    8.4290   -0.2470   26.5570 C   0  0  0  0  0  0  0  0  0  0  0  0
    7.0740    0.5030   28.3640 C   0  0  0  0  0  0  0  0  0  0  0  0
    7.8220    1.6660   28.5150 C   0  0  0  0  0  0  0  0  0  0  0  0
   12.4820   -1.3770   23.7480 N   0  0  0  0  0  0  0  0  0  0  0  0
   10.1200   -1.5640   25.3570 N   0  0  0  0  0  0  0  0  0  0  0  0
    8.0090   -2.3770   25.5740 O   0  0  0  0  0  0  0  0  0  0  0  0
    7.5030   -0.5450   27.5910 O   0  0  0  0  0  0  0  0  0  0  0  0
  3  2  1  0
  4  3  1  0
  5  3  1  0
  6  5  1  0
  8  7  1  0
 10  9  1  0
 12 11  1  0
 13  6  1  0
 14 13  1  0
 14  2  1  0
 15 10  1  0
 15  7  1  0
 15  1  1  0
 16 11  1  0
 16  9  1  0
 16  8  1  0
 17 11  1  0
 18 12  1  0
 18 13  1  0
M  END
$$$$
Mpro-x0376_0A
     RDKit          3D

 18 20  0  0  0  0  0  0  0  0999 V2000
   -0.7300   29.8920   -9.0420 C   0  0  0  0  0  0  0  0  0  0  0  0
   -2.6100   31.1830   -8.0130 C   0  0  0  0  0  0  0  0  0  0  0  0
   -3.1840   32.4600   -8.6240 C   0  0  0  0  0  0  0  0  0  0  0  0
   -2.3080   33.6950   -8.4050 C   0  0  0  0  0  0  0  0  0  0  0  0
   -1.0390   33.6790   -9.2590 C   0  0  0  0  0  0  0  0  0  0  0  0
    0.1870   33.1320   -8.5380 C   0  0  0  0  0  0  0  0  0  0  0  0
   -0.1400   31.8980   -7.7150 C   0  0  0  0  0  0  0  0  0  0  0  0
   -1.7080   28.8580   -9.5970 C   0  0  0  0  0  0  0  0  0  0  0  0
   -2.1950   28.8740  -10.8880 C   0  0  0  0  0  0  0  0  0  0  0  0
   -3.0790   27.8870  -11.3240 C   0  0  0  0  0  0  0  0  0  0  0  0
   -3.4850   26.8550  -10.4580 C   0  0  0  0  0  0  0  0  0  0  0  0
   -4.5100   25.1600   -9.3950 C   0  0  0  0  0  0  0  0  0  0  0  0
   -3.0100   26.8340   -9.1860 C   0  0  0  0  0  0  0  0  0  0  0  0
   -2.1100   27.8410   -8.7470 C   0  0  0  0  0  0  0  0  0  0  0  0
   -1.1830   31.0220   -8.2390 N   0  0  0  0  0  0  0  0  0  0  0  0
    0.4320   29.7290   -9.2360 O   0  0  0  0  0  0  0  0  0  0  0  0
   -4.3550   25.7610  -10.6470 O   0  0  0  0  0  0  0  0  0  0  0  0
   -3.5690   25.7230   -8.5180 O   0  0  0  0  0  0  0  0  0  0  0  0
  3  2  1  0
  4  3  1  0
  5  4  1  0
  6  5  1  0
  7  6  1  0
  8  1  1  0
  9  8  1  0
 10  9  1  0
 11 10  1  0
 13 11  1  0
 14 13  1  0
 14  8  1  0
 15  7  1  0
 15  2  1  0
 15  1  1  0
 16  1  1  0
 17 12  1  0
 17 11  1  0
 18 13  1  0
 18 12  1  0
M  END
$$$$
Mpro-x0387_0A
     RDKit          3D

 13 14  0  0  0  0  0  0  0  0999 V2000
    9.1750   -4.8810   26.5250 C   0  0  2  0  0  0  0  0  0  0  0  0
   10.4170   -4.7300   25.8100 C   0  0  0  0  0  0  0  0  0  0  0  0
   10.6580   -3.3210   25.2580 C   0  0  0  0  0  0  0  0  0  0  0  0
    9.7110   -1.5560   24.2340 C   0  0  0  0  0  0  0  0  0  0  0  0
   11.0900   -1.1990   23.6610 C   0  0  0  0  0  0  0  0  0  0  0  0
   11.9950   -0.0920   24.1940 C   0  0  0  0  0  0  0  0  0  0  0  0
   13.2090   -0.0400   23.4310 C   0  0  0  0  0  0  0  0  0  0  0  0
   11.7340   -1.8400   22.5540 C   0  0  0  0  0  0  0  0  0  0  0  0
    8.3350   -2.8910   25.3120 C   0  0  0  0  0  0  0  0  0  0  0  0
    8.0760   -4.3270   25.7760 C   0  0  0  0  0  0  0  0  0  0  0  0
    9.5510   -2.7440   24.5330 N   0  0  0  0  0  0  0  0  0  0  0  0
    9.2930   -4.2850   27.7940 O   0  0  0  0  0  0  0  0  0  0  0  0
   13.1780   -1.1690   22.2730 S   0  0  0  0  0  0  0  0  0  0  0  0
  2  1  1  0
  3  2  1  0
  5  4  1  0
  6  5  1  0
  7  6  1  0
  8  5  1  0
 10  9  1  0
 10  1  1  0
 11  9  1  0
 11  4  1  0
 11  3  1  0
  1 12  1  1
 13  8  1  0
 13  7  1  0
M  END
$$$$
Mpro-x0390_0A
     RDKit          3D

 18 20  0  0  0  0  0  0  0  0999 V2000
   22.1230   18.2850    4.0530 C   0  0  0  0  0  0  0  0  0  0  0  0
   21.2570   19.3620    3.9210 C   0  0  0  0  0  0  0  0  0  0  0  0
   20.5910   19.8420    5.0380 C   0  0  0  0  0  0  0  0  0  0  0  0
   20.7700   19.2450    6.2810 C   0  0  0  0  0  0  0  0  0  0  0  0
   21.6330   18.1630    6.4120 C   0  0  0  0  0  0  0  0  0  0  0  0
   22.3030   17.6860    5.2910 C   0  0  0  0  0  0  0  0  0  0  0  0
   23.2620   16.5110    5.3890 C   0  0  0  0  0  0  0  0  0  0  0  0
   23.7420   14.3090    4.3150 C   0  0  0  0  0  0  0  0  0  0  0  0
   25.4760   12.9870    4.5310 C   0  0  0  0  0  0  0  0  0  0  0  0
   26.6920   12.3220    4.8820 C   0  0  0  0  0  0  0  0  0  0  0  0
   27.0460   11.1400    4.2350 C   0  0  0  0  0  0  0  0  0  0  0  0
   26.2200   10.6090    3.2400 C   0  0  0  0  0  0  0  0  0  0  0  0
   25.0390   11.2610    2.8980 C   0  0  0  0  0  0  0  0  0  0  0  0
   24.6690   12.4660    3.5640 C   0  0  0  0  0  0  0  0  0  0  0  0
   22.8370   15.4250    4.5260 N   0  0  0  0  0  0  0  0  0  0  0  0
   24.8800   14.1270    4.9810 N   0  0  0  0  0  0  0  0  0  0  0  0
   23.6040   13.3020    3.4520 N   0  0  0  0  0  0  0  0  0  0  0  0
   22.8100   17.7850    2.9420 O   0  0  0  0  0  0  0  0  0  0  0  0
  2  1  1  0
  3  2  1  0
  4  3  1  0
  5  4  1  0
  6  5  1  0
  6  1  1  0
  7  6  1  0
 10  9  1  0
 11 10  1  0
 12 11  1  0
 13 12  1  0
 14 13  1  0
 14  9  1  0
 15  8  1  0
 15  7  1  0
 16  9  1  0
 16  8  1  0
 17 14  1  0
 17  8  1  0
 18  1  1  0
M  END
$$$$
Mpro-x0395_0A
     RDKit          3D

 14 15  0  0  0  0  0  0  0  0999 V2000
    9.4450   -5.4560   26.2700 C   0  0  0  0  0  0  0  0  0  0  0  0
    9.2070   -4.0760   25.6400 C   0  0  0  0  0  0  0  0  0  0  0  0
    9.0750   -2.0990   24.1530 C   0  0  0  0  0  0  0  0  0  0  0  0
    9.1440   -1.0920   22.9880 C   0  0  0  0  0  0  0  0  0  0  0  0
   10.6120    0.2730   23.8080 C   0  0  0  0  0  0  0  0  0  0  0  0
   11.9340    1.1730   23.3870 C   0  0  0  0  0  0  0  0  0  0  0  0
   12.9590    0.4200   22.9140 C   0  0  0  0  0  0  0  0  0  0  0  0
   12.6330   -0.8470   22.1290 C   0  0  2  0  0  0  0  0  0  0  0  0
   11.4050   -1.5010   22.4190 C   0  0  0  0  0  0  0  0  0  0  0  0
   13.6190   -1.5690   21.5760 F   0  0  0  0  0  0  0  0  0  0  0  0
    8.6430   -3.0010   26.2950 N   0  0  0  0  0  0  0  0  0  0  0  0
    8.5570   -1.8210   25.4060 N   0  0  0  0  0  0  0  0  0  0  0  0
   10.2680   -0.5240   22.8710 N   0  0  0  0  0  0  0  0  0  0  0  0
    9.5940   -3.6570   24.0980 S   0  0  0  0  0  0  0  0  0  0  0  0
  2  1  1  0
  4  3  1  0
  6  5  1  0
  7  6  1  0
  8  7  1  0
  9  8  1  0
  8 10  1  1
 11  2  1  0
 12 11  1  0
 12  3  1  0
 13  5  1  0
 13  4  1  0
 13  9  1  0
 14  3  1  0
 14  2  1  0
M  END
$$$$
Mpro-x0397_0A
     RDKit          3D

 15 16  0  0  0  0  0  0  0  0999 V2000
    8.4620   -1.4260   20.8180 C   0  0  0  0  0  0  0  0  0  0  0  0
    7.4230   -1.7030   18.5170 C   0  0  0  0  0  0  0  0  0  0  0  0
    6.5860   -0.4090   18.4240 C   0  0  0  0  0  0  0  0  0  0  0  0
    5.6120   -0.0080   19.3360 C   0  0  0  0  0  0  0  0  0  0  0  0
    5.1130    1.1880   18.9000 C   0  0  0  0  0  0  0  0  0  0  0  0
    4.0180    2.0090   19.5830 C   0  0  0  0  0  0  0  0  0  0  0  0
    6.6110   -3.1300   20.4730 C   0  0  0  0  0  0  0  0  0  0  0  0
    5.8040   -4.5360   22.4490 C   0  0  2  0  0  0  0  0  0  0  0  0
    6.4920   -5.5500   23.3670 C   0  0  0  0  0  0  0  0  0  0  0  0
    6.0680   -5.9600   21.9500 C   0  0  0  0  0  0  0  0  0  0  0  0
    7.4990   -2.0970   19.9360 N   0  0  0  0  0  0  0  0  0  0  0  0
    6.6690    0.5400   17.4800 N   0  0  0  0  0  0  0  0  0  0  0  0
    6.6850   -3.4990   21.8960 N   0  0  0  0  0  0  0  0  0  0  0  0
    5.7530    1.4990   17.7840 O   0  0  0  0  0  0  0  0  0  0  0  0
    5.8350   -3.6660   19.7450 O   0  0  0  0  0  0  0  0  0  0  0  0
  3  2  1  0
  4  3  1  0
  5  4  1  0
  6  5  1  0
  9  8  1  0
 10  9  1  0
 10  8  1  0
 11  7  1  0
 11  2  1  0
 11  1  1  0
 12  3  1  0
 13  7  1  0
  8 13  1  6
 14  5  1  0
 14 12  1  0
 15  7  1  0
M  END
$$$$
Mpro-x0398_0A
     RDKit          3D

 15 16  0  0  0  0  0  0  0  0999 V2000
   26.0770  -10.3880    4.1090 C   0  0  0  0  0  0  0  0  0  0  0  0
   26.4320  -10.3160    5.6010 C   0  0  0  0  0  0  0  0  0  0  0  0
   27.9430  -10.8200    7.2050 C   0  0  0  0  0  0  0  0  0  0  0  0
   27.7370  -11.8120    8.3390 C   0  0  0  0  0  0  0  0  0  0  0  0
   27.0480  -13.4200    6.8720 C   0  0  0  0  0  0  0  0  0  0  0  0
   27.1470  -12.4830    5.6740 C   0  0  0  0  0  0  0  0  0  0  0  0
   23.4180   -9.4780    4.7100 C   0  0  0  0  0  0  0  0  0  0  0  0
   23.6960   -8.1830    4.3150 C   0  0  0  0  0  0  0  0  0  0  0  0
   23.0260   -7.1320    4.8960 C   0  0  0  0  0  0  0  0  0  0  0  0
   22.0750   -7.3560    5.8790 C   0  0  0  0  0  0  0  0  0  0  0  0
   21.8020   -8.6510    6.2760 C   0  0  0  0  0  0  0  0  0  0  0  0
   22.4780   -9.7180    5.6940 C   0  0  0  0  0  0  0  0  0  0  0  0
   27.3450  -11.1340    5.9810 N   0  0  0  0  0  0  0  0  0  0  0  0
   27.9240  -13.0960    7.8970 O   0  0  0  0  0  0  0  0  0  0  0  0
   24.3240  -10.8400    3.9410 S   0  0  0  0  0  0  0  0  0  0  0  0
  2  1  1  0
  4  3  1  0
  6  5  1  0
  8  7  1  0
  9  8  1  0
 10  9  1  0
 11 10  1  0
 12  7  1  0
 12 11  1  0
 13  6  1  0
 13  2  1  0
 13  3  1  0
 14  5  1  0
 14  4  1  0
 15  7  1  0
 15  1  1  0
M  END
$$$$
Mpro-x0425_0A
     RDKit          3D

 15 17  0  0  0  0  0  0  0  0999 V2000
    2.2780  -24.9020    0.8220 C   0  0  0  0  0  0  0  0  0  0  0  0
    2.0540  -23.5370    0.6930 C   0  0  0  0  0  0  0  0  0  0  0  0
    4.1610  -23.2890   -0.2060 C   0  0  0  0  0  0  0  0  0  0  0  0
    6.4500  -22.8300   -1.1740 C   0  0  0  0  0  0  0  0  0  0  0  0
    7.3100  -21.5270   -1.3850 C   0  0  0  0  0  0  0  0  0  0  0  0
    6.2180  -20.4230   -1.6400 C   0  0  1  0  0  0  0  0  0  0  0  0
    6.7560  -19.0140   -1.3690 C   0  0  0  0  0  0  0  0  0  0  0  0
    7.4500  -18.7250   -2.5080 C   0  0  0  0  0  0  0  0  0  0  0  0
    5.8010  -20.3460   -3.1920 C   0  0  0  0  0  0  0  0  0  0  0  0
    5.1920  -20.7670   -0.8320 C   0  0  0  0  0  0  0  0  0  0  0  0
    4.3890  -24.6670   -0.0810 C   0  0  0  0  0  0  0  0  0  0  0  0
    3.0100  -22.7490    0.1780 N   0  0  0  0  0  0  0  0  0  0  0  0
    5.2310  -22.4170   -0.7800 N   0  0  0  0  0  0  0  0  0  0  0  0
    3.4410  -25.4400    0.4380 N   0  0  0  0  0  0  0  0  0  0  0  0
    6.6940  -19.5370   -3.7320 O   0  0  0  0  0  0  0  0  0  0  0  0
  2  1  1  0
  5  4  1  0
  6  5  1  6
  7  6  1  0
  8  7  1  0
  9  6  1  0
 10  6  1  0
 11  3  1  0
 12  3  1  0
 12  2  1  0
 13  3  1  0
 13 10  1  0
 13  4  1  0
 14 11  1  0
 14  1  1  0
 15  9  1  0
 15  8  1  0
M  END
$$$$
Mpro-x0426_0A
     RDKit          3D

 18 19  0  0  0  0  0  0  0  0999 V2000
    1.5900    3.7560   25.2360 C   0  0  0  0  0  0  0  0  0  0  0  0
    0.5940    4.4640   25.8950 C   0  0  0  0  0  0  0  0  0  0  0  0
   -0.7140    4.0000   25.9280 C   0  0  0  0  0  0  0  0  0  0  0  0
   -1.0350    2.8120   25.2910 C   0  0  0  0  0  0  0  0  0  0  0  0
   -0.0460    2.1020   24.6220 C   0  0  0  0  0  0  0  0  0  0  0  0
    1.2690    2.5630   24.5940 C   0  0  0  0  0  0  0  0  0  0  0  0
    2.3240    1.7490   23.8460 C   0  0  0  0  0  0  0  0  0  0  0  0
    4.4690    1.6460   22.4650 C   0  0  0  0  0  0  0  0  0  0  0  0
    3.9730    1.5800   21.0190 C   0  0  0  0  0  0  0  0  0  0  0  0
    4.9720    1.1050   19.9600 C   0  0  0  0  0  0  0  0  0  0  0  0
    5.9820    0.1790   20.2230 C   0  0  0  0  0  0  0  0  0  0  0  0
    6.8260   -0.1870   19.1740 C   0  0  0  0  0  0  0  0  0  0  0  0
    5.7380    1.1880   17.7050 C   0  0  0  0  0  0  0  0  0  0  0  0
    4.8590    1.6100   18.6880 C   0  0  0  0  0  0  0  0  0  0  0  0
    2.8740    4.2400   25.2290 F   0  0  0  0  0  0  0  0  0  0  0  0
    3.4630    2.4020   23.2100 N   0  0  0  0  0  0  0  0  0  0  0  0
    6.6890    0.3190   17.9560 N   0  0  0  0  0  0  0  0  0  0  0  0
    2.1910    0.5700   23.7860 O   0  0  0  0  0  0  0  0  0  0  0  0
  2  1  1  0
  3  2  1  0
  4  3  1  0
  5  4  1  0
  6  5  1  0
  6  1  1  0
  7  6  1  0
  9  8  1  0
 10  9  1  0
 11 10  1  0
 12 11  1  0
 14 10  1  0
 14 13  1  0
 15  1  1  0
 16  8  1  0
 16  7  1  0
 17 13  1  0
 17 12  1  0
 18  7  1  0
M  END
$$$$
Mpro-x0434_0A
     RDKit          3D

 16 17  0  0  0  0  0  0  0  0999 V2000
    8.7390   -0.2790   21.3670 C   0  0  0  0  0  0  0  0  0  0  0  0
   10.6660   -0.5430   22.8360 C   0  0  0  0  0  0  0  0  0  0  0  0
   10.7070    0.2840   23.9390 C   0  0  0  0  0  0  0  0  0  0  0  0
   11.9150    0.7890   24.3530 C   0  0  0  0  0  0  0  0  0  0  0  0
   13.0720    0.4730   23.6550 C   0  0  0  0  0  0  0  0  0  0  0  0
   13.0220   -0.3540   22.5460 C   0  0  0  0  0  0  0  0  0  0  0  0
   11.8080   -0.8600   22.1250 C   0  0  0  0  0  0  0  0  0  0  0  0
    6.7490   -0.0030   19.8770 C   0  0  0  0  0  0  0  0  0  0  0  0
    5.5470    0.6240   20.1630 C   0  0  0  0  0  0  0  0  0  0  0  0
    4.9190    1.2890   19.1220 C   0  0  0  0  0  0  0  0  0  0  0  0
    5.5090    1.2610   17.8640 C   0  0  0  0  0  0  0  0  0  0  0  0
    7.2890    0.0280   18.6020 C   0  0  0  0  0  0  0  0  0  0  0  0
    9.3770   -1.0150   22.4320 N   0  0  0  0  0  0  0  0  0  0  0  0
    7.4290   -0.6970   20.9370 N   0  0  0  0  0  0  0  0  0  0  0  0
    6.6560    0.6620   17.6510 N   0  0  0  0  0  0  0  0  0  0  0  0
    9.2940    0.6380   20.8600 O   0  0  0  0  0  0  0  0  0  0  0  0
  3  2  1  0
  4  3  1  0
  5  4  1  0
  6  5  1  0
  7  2  1  0
  7  6  1  0
  9  8  1  0
 10  9  1  0
 11 10  1  0
 12  8  1  0
 13  1  1  0
 13  2  1  0
 14  8  1  0
 14  1  1  0
 15 12  1  0
 15 11  1  0
 16  1  1  0
M  END
$$$$
Mpro-x0464_0A
     RDKit          3D

 15 16  0  0  0  0  0  0  0  0999 V2000
   22.4860   14.9650    8.5220 C   0  0  0  0  0  0  0  0  0  0  0  0
   21.3720   14.8800    7.4810 C   0  0  2  0  0  0  0  0  0  0  0  0
   20.6590   13.5380    7.7240 C   0  0  2  0  0  0  0  0  0  0  0  0
   21.1390   12.4400    6.9210 C   0  0  0  0  0  0  0  0  0  0  0  0
   22.4500   12.6040    6.3490 C   0  0  0  0  0  0  0  0  0  0  0  0
   22.6760   13.9360    5.6490 C   0  0  0  0  0  0  0  0  0  0  0  0
   22.5480   16.1050    5.9580 C   0  0  0  0  0  0  0  0  0  0  0  0
   21.7420   17.3670    5.6490 C   0  0  2  0  0  0  0  0  0  0  0  0
   21.3740   17.6210    4.3330 C   0  0  0  0  0  0  0  0  0  0  0  0
   20.6620   18.7710    4.0200 C   0  0  0  0  0  0  0  0  0  0  0  0
   20.3320   19.6740    5.0200 C   0  0  0  0  0  0  0  0  0  0  0  0
   20.7070   19.4320    6.3340 C   0  0  0  0  0  0  0  0  0  0  0  0
   21.4230   18.2810    6.6490 C   0  0  0  0  0  0  0  0  0  0  0  0
   21.9010   15.0630    6.1360 N   0  0  0  0  0  0  0  0  0  0  0  0
   19.2920   13.7270    7.4800 O   0  0  0  0  0  0  0  0  0  0  0  0
  2  1  1  1
  3  2  1  0
  4  3  1  0
  5  4  1  0
  6  5  1  0
  8  7  1  6
  9  8  1  0
 10  9  1  0
 11 10  1  0
 12 11  1  0
 13 12  1  0
 13  8  1  0
 14  2  1  0
 14  7  1  0
 14  6  1  0
  3 15  1  6
M  END
$$$$
Mpro-x0478_0A
     RDKit          3D

 15 15  0  0  0  0  0  0  0  0999 V2000
   16.2690    2.3550  -14.6730 C   0  0  0  0  0  0  0  0  0  0  0  0
   16.8180    3.2930  -12.6460 C   0  0  0  0  0  0  0  0  0  0  0  0
   17.6750    2.4420  -11.7220 C   0  0  0  0  0  0  0  0  0  0  0  0
   18.7680    1.7630  -12.2230 C   0  0  0  0  0  0  0  0  0  0  0  0
   19.5420    0.9820  -11.3850 C   0  0  0  0  0  0  0  0  0  0  0  0
   19.2360    0.8740  -10.0440 C   0  0  0  0  0  0  0  0  0  0  0  0
   18.1460    1.5540   -9.5320 C   0  0  0  0  0  0  0  0  0  0  0  0
   16.1100    3.6620   -7.7130 C   0  0  0  0  0  0  0  0  0  0  0  0
   17.3710    2.3370  -10.3800 C   0  0  0  0  0  0  0  0  0  0  0  0
   17.8440    1.4170   -8.1140 N   0  0  0  0  0  0  0  0  0  0  0  0
   17.0820    3.2700  -14.0080 O   0  0  0  0  0  0  0  0  0  0  0  0
   15.9200    3.9580  -12.2520 O   0  0  0  0  0  0  0  0  0  0  0  0
   17.2940    2.3660   -5.7270 O   0  0  0  0  0  0  0  0  0  0  0  0
   18.6890    3.6390   -6.9840 O   0  0  0  0  0  0  0  0  0  0  0  0
   17.5190    2.7720   -7.1270 S   0  0  2  0  0  0  0  0  0  0  0  0
  3  2  1  0
  4  3  1  0
  5  4  1  0
  6  5  1  0
  7  6  1  0
  9  3  1  0
  9  7  1  0
 10  7  1  0
 11  1  1  0
 11  2  1  0
 12  2  1  0
 15  8  1  6
 15 14  1  0
 15 13  1  0
 15 10  1  0
M  END
$$$$
Mpro-x0499_0A
     RDKit          3D

 17 18  0  0  0  0  0  0  0  0999 V2000
   26.0410    4.7670   13.4310 C   0  0  0  0  0  0  0  0  0  0  0  0
   25.6140    4.3990   12.0050 C   0  0  0  0  0  0  0  0  0  0  0  0
   25.3620    5.3710   11.0430 C   0  0  0  0  0  0  0  0  0  0  0  0
   24.9940    5.0110    9.7610 C   0  0  0  0  0  0  0  0  0  0  0  0
   24.8730    3.6790    9.4310 C   0  0  0  0  0  0  0  0  0  0  0  0
   23.2480    2.6370    7.8060 C   0  0  0  0  0  0  0  0  0  0  0  0
   22.9370    2.2770    6.3390 C   0  0  2  0  0  0  0  0  0  0  0  0
   23.3400    1.0950    6.0950 C   0  0  0  0  0  0  0  0  0  0  0  0
   23.9950    1.1510    4.7290 C   0  0  0  0  0  0  0  0  0  0  0  0
   24.6750    2.5070    4.8200 C   0  0  0  0  0  0  0  0  0  0  0  0
   25.1320    2.7020   10.3740 C   0  0  0  0  0  0  0  0  0  0  0  0
   25.5010    3.0600   11.6610 C   0  0  0  0  0  0  0  0  0  0  0  0
   26.0700    6.1400   13.8990 N   0  0  0  0  0  0  0  0  0  0  0  0
   24.4960    3.3160    8.0880 N   0  0  0  0  0  0  0  0  0  0  0  0
   26.3770    3.9080   14.1830 O   0  0  0  0  0  0  0  0  0  0  0  0
   22.4980    2.3610    8.6850 O   0  0  0  0  0  0  0  0  0  0  0  0
   23.7760    3.2410    5.3450 O   0  0  0  0  0  0  0  0  0  0  0  0
  2  1  1  0
  3  2  1  0
  4  3  1  0
  5  4  1  0
  7  6  1  1
  8  7  1  0
  9  8  1  0
 10  9  1  0
 11  5  1  0
 12 11  1  0
 12  2  1  0
 13  1  1  0
 14  6  1  0
 14  5  1  0
 15  1  1  0
 16  6  1  0
 17 10  1  0
 17  7  1  0
M  END
$$$$
Mpro-x0540_0A
     RDKit          3D

 18 19  0  0  0  0  0  0  0  0999 V2000
    3.0550    2.2660   23.3760 C   0  0  0  0  0  0  0  0  0  0  0  0
    5.3300    1.5030   22.5690 C   0  0  0  0  0  0  0  0  0  0  0  0
    5.0000    0.2710   21.7300 C   0  0  0  0  0  0  0  0  0  0  0  0
    5.4280    0.3880   20.2680 C   0  0  0  0  0  0  0  0  0  0  0  0
    6.4960   -0.3840   19.8080 C   0  0  0  0  0  0  0  0  0  0  0  0
    6.8790   -0.2690   18.4780 C   0  0  0  0  0  0  0  0  0  0  0  0
    5.2120    1.2820   18.0740 C   0  0  0  0  0  0  0  0  0  0  0  0
    4.7590    1.2450   19.3890 C   0  0  0  0  0  0  0  0  0  0  0  0
    0.7800    3.2560   23.9770 C   0  0  1  0  0  0  0  0  0  0  0  0
    0.6750    4.6960   24.4870 C   0  0  0  0  0  0  0  0  0  0  0  0
   -0.6470    4.9500   25.1950 C   0  0  0  0  0  0  0  0  0  0  0  0
   -1.8160    4.6400   24.2700 C   0  0  0  0  0  0  0  0  0  0  0  0
   -1.7640    3.2080   23.7520 C   0  0  0  0  0  0  0  0  0  0  0  0
   -0.4130    2.8510   23.1240 C   0  0  0  0  0  0  0  0  0  0  0  0
    4.1990    2.4010   22.4890 N   0  0  0  0  0  0  0  0  0  0  0  0
    6.2440    0.5430   17.6640 N   0  0  0  0  0  0  0  0  0  0  0  0
    1.9780    3.2140   23.1660 N   0  0  0  0  0  0  0  0  0  0  0  0
    3.0150    1.4220   24.2210 O   0  0  0  0  0  0  0  0  0  0  0  0
  3  2  1  0
  4  3  1  0
  5  4  1  0
  6  5  1  0
  8  7  1  0
  8  4  1  0
 10  9  1  0
 11 10  1  0
 12 11  1  0
 13 12  1  0
 14 13  1  0
 14  9  1  0
 15  2  1  0
 15  1  1  0
 16  7  1  0
 16  6  1  0
  9 17  1  6
 17  1  1  0
 18  1  1  0
M  END
$$$$
Mpro-x0669_0A
     RDKit          3D

 14 15  0  0  0  0  0  0  0  0999 V2000
   23.6370   -8.0850    5.7580 C   0  0  0  0  0  0  0  0  0  0  0  0
   24.3870   -6.8070    6.1260 C   0  0  0  0  0  0  0  0  0  0  0  0
   25.7580   -6.7870    6.1360 C   0  0  0  0  0  0  0  0  0  0  0  0
   26.4950   -7.9840    5.7930 C   0  0  0  0  0  0  0  0  0  0  0  0
   25.7680   -9.2390    5.4350 C   0  0  0  0  0  0  0  0  0  0  0  0
   26.5680  -10.4870    5.0900 C   0  0  0  0  0  0  0  0  0  0  0  0
   27.9020  -10.5890    6.9420 C   0  0  0  0  0  0  0  0  0  0  0  0
   28.3680  -11.3720    8.1570 C   0  0  0  0  0  0  0  0  0  0  0  0
   27.4810  -13.3370    7.1170 C   0  0  0  0  0  0  0  0  0  0  0  0
   27.2730  -12.5050    5.8630 C   0  0  0  0  0  0  0  0  0  0  0  0
   24.3580   -9.2600    5.4230 C   0  0  0  0  0  0  0  0  0  0  0  0
   26.9160  -11.1740    6.1930 N   0  0  0  0  0  0  0  0  0  0  0  0
   28.3360  -12.7930    8.0340 O   0  0  0  0  0  0  0  0  0  0  0  0
   21.8520   -8.0630    5.7710 Cl  0  0  0  0  0  0  0  0  0  0  0  0
  2  1  1  0
  3  2  1  0
  4  3  1  0
  5  4  1  0
  6  5  1  0
  8  7  1  0
 10  9  1  0
 11  5  1  0
 11  1  1  0
 12  6  1  0
 12 10  1  0
 12  7  1  0
 13  9  1  0
 13  8  1  0
 14  1  1  0
M  END
$$$$
Mpro-x0678_0A
     RDKit          3D

 16 17  0  0  0  0  0  0  0  0999 V2000
    8.9620    0.2240   21.7200 C   0  0  0  0  0  0  0  0  0  0  0  0
    9.5140   -0.2640   23.0540 C   0  0  0  0  0  0  0  0  0  0  0  0
   11.0320   -0.1730   23.1190 C   0  0  2  0  0  0  0  0  0  0  0  0
   11.6820   -1.1180   22.1100 C   0  0  0  0  0  0  0  0  0  0  0  0
   12.9270   -1.8160   22.6520 C   0  0  0  0  0  0  0  0  0  0  0  0
   13.7410   -0.9860   23.6350 C   0  0  0  0  0  0  0  0  0  0  0  0
   12.9140   -0.2780   24.7030 C   0  0  0  0  0  0  0  0  0  0  0  0
   11.4160   -0.5000   24.5520 C   0  0  0  0  0  0  0  0  0  0  0  0
    7.0890    0.1080   20.1160 C   0  0  0  0  0  0  0  0  0  0  0  0
    5.8360    0.7020   20.2340 C   0  0  0  0  0  0  0  0  0  0  0  0
    5.2350    1.1350   19.0570 C   0  0  0  0  0  0  0  0  0  0  0  0
    5.9150    0.9580   17.8610 C   0  0  0  0  0  0  0  0  0  0  0  0
    7.7280   -0.0310   18.8990 C   0  0  0  0  0  0  0  0  0  0  0  0
    7.7050   -0.3290   21.3320 N   0  0  0  0  0  0  0  0  0  0  0  0
    7.1140    0.3960   17.8170 N   0  0  0  0  0  0  0  0  0  0  0  0
    9.5180    1.0170   21.0300 O   0  0  0  0  0  0  0  0  0  0  0  0
  2  1  1  0
  3  2  1  1
  4  3  1  0
  5  4  1  0
  6  5  1  0
  7  6  1  0
  8  7  1  0
  8  3  1  0
 10  9  1  0
 11 10  1  0
 12 11  1  0
 13  9  1  0
 14  9  1  0
 14  1  1  0
 15 13  1  0
 15 12  1  0
 16  1  1  0
M  END
$$$$
Mpro-x0874_0A
     RDKit          3D

 13 14  0  0  0  0  0  0  0  0999 V2000
    9.5580    1.8200   22.2670 C   0  0  0  0  0  0  0  0  0  0  0  0
    9.1730    1.1610   23.6340 C   0  0  1  0  0  0  0  0  0  0  0  0
    7.8480    1.0680   23.7850 C   0  0  0  0  0  0  0  0  0  0  0  0
    7.4560   -0.4410   23.3710 C   0  0  0  0  0  0  0  0  0  0  0  0
    8.8250   -1.1350   23.0350 C   0  0  0  0  0  0  0  0  0  0  0  0
    9.7470   -0.4010   23.7150 C   0  0  1  0  0  0  0  0  0  0  0  0
   11.1740   -0.4880   23.1190 C   0  0  0  0  0  0  0  0  0  0  0  0
   12.1800    0.4340   23.4970 C   0  0  0  0  0  0  0  0  0  0  0  0
   13.4350    0.2230   22.8750 C   0  0  0  0  0  0  0  0  0  0  0  0
   11.5520   -1.4830   22.1960 C   0  0  0  0  0  0  0  0  0  0  0  0
   10.3490    3.0590   22.2720 N   0  0  0  0  0  0  0  0  0  0  0  0
    9.2250    1.3200   21.2130 O   0  0  0  0  0  0  0  0  0  0  0  0
   13.2410   -1.1710   21.8340 S   0  0  0  0  0  0  0  0  0  0  0  0
  2  1  1  6
  3  2  1  0
  4  3  1  0
  5  4  1  0
  6  5  1  0
  6  2  1  0
  6  7  1  6
  8  7  1  0
  9  8  1  0
 10  7  1  0
 11  1  1  0
 12  1  1  0
 13 10  1  0
 13  9  1  0
M  END
$$$$
Mpro-x0887_0A
     RDKit          3D

 13 14  0  0  0  0  0  0  0  0999 V2000
    4.7110    8.1080   10.8320 N   0  0  0  0  0  0  0  0  0  0  0  0
    2.0820    9.9830    9.6790 C   0  0  0  0  0  0  0  0  0  0  0  0
    1.7400    9.2790   10.8320 O   0  0  0  0  0  0  0  0  0  0  0  0
    3.4440    9.4810    9.1680 C   0  0  2  0  0  0  0  0  0  0  0  0
    3.2620    8.1310    8.4500 C   0  0  0  0  0  0  0  0  0  0  0  0
    4.4200    9.3610   10.3210 C   0  0  0  0  0  0  0  0  0  0  0  0
    5.6180    8.0510   11.8450 C   0  0  0  0  0  0  0  0  0  0  0  0
    6.2520    9.1850   12.3830 C   0  0  0  0  0  0  0  0  0  0  0  0
    5.9320   10.4360   11.8680 C   0  0  0  0  0  0  0  0  0  0  0  0
    5.0140   10.5380   10.8380 C   0  0  0  0  0  0  0  0  0  0  0  0
    3.9790   10.4020    8.0650 C   0  0  0  0  0  0  0  0  0  0  0  0
    3.4790    9.8320    6.7360 C   0  0  0  0  0  0  0  0  0  0  0  0
    2.7860    8.5160    7.0510 C   0  0  0  0  0  0  0  0  0  0  0  0
  3  2  1  0
  4  2  1  1
  5  4  1  0
  6  4  1  0
  6  1  1  0
  7  1  1  0
  8  7  1  0
  9  8  1  0
 10  6  1  0
 10  9  1  0
 11  4  1  0
 12 11  1  0
 13 12  1  0
 13  5  1  0
M  END
$$$$
Mpro-x0946_0A
     RDKit          3D

 11 11  0  0  0  0  0  0  0  0999 V2000
    9.5270    5.1070   23.0000 N   0  0  0  0  0  0  0  0  0  0  0  0
   12.6100    1.0520   23.1500 C   0  0  0  0  0  0  0  0  0  0  0  0
   10.3670    5.1640   25.3050 O   0  0  0  0  0  0  0  0  0  0  0  0
   11.3700    1.1210   23.7910 C   0  0  0  0  0  0  0  0  0  0  0  0
   10.8290    2.3950   24.0540 C   0  0  0  0  0  0  0  0  0  0  0  0
   11.5030    3.5810   23.6880 C   0  0  0  0  0  0  0  0  0  0  0  0
   12.7490    3.4480   23.0580 C   0  0  0  0  0  0  0  0  0  0  0  0
   13.3080    2.2000   22.7900 C   0  0  0  0  0  0  0  0  0  0  0  0
   11.7330    6.1150   23.5100 O   0  0  0  0  0  0  0  0  0  0  0  0
   10.8430    5.1060   23.9780 S   0  0  1  0  0  0  0  0  0  0  0  0
   13.4090   -0.7000   22.6920 Br  0  0  0  0  0  0  0  0  0  0  0  0
  4  2  1  0
  5  4  1  0
  6  5  1  0
  7  6  1  0
  8  7  1  0
  8  2  1  0
 10  3  1  0
 10  1  1  6
 10  6  1  0
 10  9  1  0
 11  2  1  0
M  END
$$$$
Mpro-x0967_0A
     RDKit          3D

 20 20  0  0  0  0  0  0  0  0999 V2000
    7.8160    4.8510   22.6070 C   0  0  0  0  0  0  0  0  0  0  0  0
    7.0410   -0.3190   20.1400 C   0  0  0  0  0  0  0  0  0  0  0  0
    9.1190    0.3280   22.3550 C   0  0  0  0  0  0  0  0  0  0  0  0
   10.0490   -1.8570   21.8960 C   0  0  0  0  0  0  0  0  0  0  0  0
   11.4300   -1.6550   22.3400 C   0  0  0  0  0  0  0  0  0  0  0  0
   12.5700   -1.7000   22.7420 C   0  0  0  0  0  0  0  0  0  0  0  0
    7.3670    3.4730   22.9690 C   0  0  0  0  0  0  0  0  0  0  0  0
    7.9300    1.0960   22.9160 C   0  0  2  0  0  0  0  0  0  0  0  0
    6.5970    0.4580   22.4930 C   0  0  0  0  0  0  0  0  0  0  0  0
    6.3590    0.5210   21.0050 C   0  0  0  0  0  0  0  0  0  0  0  0
    5.4780    1.4430   20.4570 C   0  0  0  0  0  0  0  0  0  0  0  0
    5.2780    1.5240   19.0890 C   0  0  0  0  0  0  0  0  0  0  0  0
    5.9710    0.6700   18.2480 C   0  0  0  0  0  0  0  0  0  0  0  0
    6.8570   -0.2490   18.7720 C   0  0  0  0  0  0  0  0  0  0  0  0
    8.0630    2.4670   22.4450 N   0  0  0  0  0  0  0  0  0  0  0  0
    9.1560   -0.9750   22.6170 N   0  0  0  0  0  0  0  0  0  0  0  0
    6.3900    3.2650   23.6800 O   0  0  0  0  0  0  0  0  0  0  0  0
    5.8190    0.7380   16.9050 O   0  0  0  0  0  0  0  0  0  0  0  0
    9.9670    0.8990   21.6760 O   0  0  0  0  0  0  0  0  0  0  0  0
   14.2640   -2.0190   23.6280 Br  0  0  0  0  0  0  0  0  0  0  0  0
  5  4  1  0
  6  5  1  0
  7  1  1  0
  8  3  1  0
  8  9  1  6
 10  2  1  0
 10  9  1  0
 11 10  1  0
 12 11  1  0
 13 12  1  0
 14 13  1  0
 14  2  1  0
 15  8  1  0
 15  7  1  0
 16  4  1  0
 16  3  1  0
 17  7  1  0
 18 13  1  0
 19  3  1  0
 20  6  1  0
M  END
$$$$
Mpro-x0978_0A
     RDKit          3D

 15 14  0  0  0  0  0  0  0  0999 V2000
    4.6390   -4.4240   23.4520 O   0  0  0  0  0  0  0  0  0  0  0  0
    4.5650   -5.5150   22.8890 C   0  0  2  0  0  0  0  0  0  0  0  0
    5.4980   -5.9430   22.0170 N   0  0  0  0  0  0  0  0  0  0  0  0
    6.6630   -5.1370   21.6300 C   0  0  0  0  0  0  0  0  0  0  0  0
    6.8050   -4.6320   20.1090 C   0  0  0  0  0  0  0  0  0  0  0  0
    5.7660   -4.8690   19.4940 C   0  0  0  0  0  0  0  0  0  0  0  0
    3.3360   -6.4070   23.1190 C   0  0  1  0  0  0  0  0  0  0  0  0
    3.3760   -7.0610   24.5130 C   0  0  2  0  0  0  0  0  0  0  0  0
    4.5680   -7.8300   24.6420 O   0  0  0  0  0  0  0  0  0  0  0  0
    2.1870   -7.9610   24.7820 C   0  0  0  0  0  0  0  0  0  0  0  0
    2.1380   -5.5770   23.0430 N   0  0  0  0  0  0  0  0  0  0  0  0
    1.0090   -5.9630   22.4230 C   0  0  0  0  0  0  0  0  0  0  0  0
    0.9360   -7.0150   21.7880 O   0  0  0  0  0  0  0  0  0  0  0  0
   -0.1590   -5.0270   22.5450 C   0  0  0  0  0  0  0  0  0  0  0  0
    8.1510   -3.8740   19.0640 S   0  0  0  0  0  0  0  0  0  0  0  0
  2  1  1  6
  3  2  1  0
  4  3  1  0
  5  4  1  0
  6  5  1  0
  7  2  1  0
  8  7  1  0
  9  8  1  0
  8 10  1  6
  7 11  1  1
 12 11  1  0
 13 12  1  0
 14 12  1  0
  5 15  1  0
M  END
$$$$
Mpro-x0981_0A
     RDKit          3D

 16 15  0  0  0  0  0  0  0  0999 V2000
    1.4320   -8.6760   21.2130 C   0  0  0  0  0  0  0  0  0  0  0  0
    1.6810   -7.3890   21.9330 C   0  0  0  0  0  0  0  0  0  0  0  0
    3.1880   -6.0870   23.3570 C   0  0  1  0  0  0  0  0  0  0  0  0
    2.8870   -6.3600   24.8340 C   0  0  0  0  0  0  0  0  0  0  0  0
    3.1520   -7.8040   25.2080 C   0  0  0  0  0  0  0  0  0  0  0  0
    4.6050   -5.5190   23.2010 C   0  0  0  0  0  0  0  0  0  0  0  0
    6.6480   -5.4210   21.8380 C   0  0  0  0  0  0  0  0  0  0  0  0
    6.6730   -5.2800   20.3240 C   0  0  0  0  0  0  0  0  0  0  0  0
    5.8440   -6.0330   19.6280 C   0  0  0  0  0  0  0  0  0  0  0  0
    2.8750   -7.2450   22.5220 N   0  0  0  0  0  0  0  0  0  0  0  0
    2.5020   -8.2760   26.2610 N   0  0  0  0  0  0  0  0  0  0  0  0
    5.4680   -6.1100   22.3620 N   0  0  0  0  0  0  0  0  0  0  0  0
    0.8290   -6.5030   21.9640 O   0  0  0  0  0  0  0  0  0  0  0  0
    3.9500   -8.4830   24.5680 O   0  0  0  0  0  0  0  0  0  0  0  0
    4.9130   -4.5220   23.8490 O   0  0  0  0  0  0  0  0  0  0  0  0
    7.7990   -4.2100   19.4330 S   0  0  0  0  0  0  0  0  0  0  0  0
  2  1  1  0
  3  4  1  1
  5  4  1  0
  6  3  1  0
  8  7  1  0
  9  8  1  0
 10  3  1  0
 10  2  1  0
 11  5  1  0
 12  6  1  0
 12  7  1  0
 13  2  1  0
 14  5  1  0
 15  6  1  0
  8 16  1  0
M  END
$$$$
Mpro-x0991_0A
     RDKit          3D

  5  4  0  0  0  0  0  0  0  0999 V2000
   10.2630   -5.8010   25.0960 N   0  0  0  0  0  0  0  0  0  0  0  0
    8.8220   -3.5490   23.3680 C   0  0  0  0  0  0  0  0  0  0  0  0
    8.2100   -4.7890   24.0210 C   0  0  0  0  0  0  0  0  0  0  0  0
    9.1000   -5.2470   25.1770 C   0  0  0  0  0  0  0  0  0  0  0  0
    8.5860   -5.0380   26.4480 N   0  0  0  0  0  0  0  0  0  0  0  0
  3  2  1  0
  4  1  1  0
  4  3  1  0
  5  4  1  0
M  END
$$$$
Mpro-x0995_0A
     RDKit          3D

  7  7  0  0  0  0  0  0  0  0999 V2000
    3.8630    2.0700   19.5890 N   0  0  0  0  0  0  0  0  0  0  0  0
    4.8270    1.2310   19.1790 C   0  0  0  0  0  0  0  0  0  0  0  0
    5.2660    0.1470   19.9800 C   0  0  0  0  0  0  0  0  0  0  0  0
    6.7040   -0.5050   18.3020 C   0  0  0  0  0  0  0  0  0  0  0  0
    5.4380    1.3570   17.9020 C   0  0  0  0  0  0  0  0  0  0  0  0
    6.1890   -0.7300   19.5570 N   0  0  0  0  0  0  0  0  0  0  0  0
    6.3730    0.5000   17.4690 N   0  0  0  0  0  0  0  0  0  0  0  0
  2  1  1  0
  3  2  1  0
  5  2  1  0
  6  3  1  0
  6  4  1  0
  7  5  1  0
  7  4  1  0
M  END
$$$$
Mpro-x1002_0A
     RDKit          3D

  7  7  0  0  0  0  0  0  0  0999 V2000
   13.0130  -27.3280    3.7990 N   0  0  0  0  0  0  0  0  0  0  0  0
   11.9030  -26.6210    3.4010 C   0  0  0  0  0  0  0  0  0  0  0  0
   10.7920  -27.3250    3.0840 O   0  0  0  0  0  0  0  0  0  0  0  0
   11.8510  -25.2140    3.2740 C   0  0  0  0  0  0  0  0  0  0  0  0
   13.0140  -24.5120    3.5730 C   0  0  0  0  0  0  0  0  0  0  0  0
   14.1700  -25.2020    3.9760 C   0  0  0  0  0  0  0  0  0  0  0  0
   14.1210  -26.5970    4.0730 C   0  0  0  0  0  0  0  0  0  0  0  0
  2  1  1  0
  3  2  1  0
  4  2  1  0
  5  4  1  0
  6  5  1  0
  7  1  1  0
  7  6  1  0
M  END
$$$$
Mpro-x1012_0A
     RDKit          3D

  7  7  0  0  0  0  0  0  0  0999 V2000
   24.6540   -7.8050    5.1700 C   0  0  2  0  0  0  0  0  0  0  0  0
   24.7950   -7.3020    3.8870 O   0  0  0  0  0  0  0  0  0  0  0  0
   23.5800   -8.9180    5.1840 C   0  0  0  0  0  0  0  0  0  0  0  0
   23.7810   -6.8700    6.0370 C   0  0  0  0  0  0  0  0  0  0  0  0
   21.3720   -7.6080    5.4610 O   0  0  0  0  0  0  0  0  0  0  0  0
   22.3690   -8.4440    7.4680 O   0  0  0  0  0  0  0  0  0  0  0  0
   22.5280   -7.9970    6.1570 S   0  0  1  0  0  0  0  0  0  0  0  0
  1  2  1  6
  3  1  1  0
  4  1  1  0
  7  5  1  6
  7  3  1  0
  7  6  1  0
  7  4  1  0
M  END
$$$$
Mpro-x1077_0A
     RDKit          3D

 15 16  0  0  0  0  0  0  0  0999 V2000
   10.0420    1.4410   21.3830 N   0  0  0  0  0  0  0  0  0  0  0  0
    9.8990    0.4750   21.9910 C   0  0  0  0  0  0  0  0  0  0  0  0
    7.4230   -5.8980   25.4390 O   0  0  0  0  0  0  0  0  0  0  0  0
    9.7280   -0.6770   22.7790 C   0  0  2  0  0  0  0  0  0  0  0  0
    8.8320   -4.1830   26.5030 C   0  0  0  0  0  0  0  0  0  0  0  0
    9.0230   -0.5760   23.9670 C   0  0  0  0  0  0  0  0  0  0  0  0
    8.9480   -1.6860   24.8020 C   0  0  0  0  0  0  0  0  0  0  0  0
    9.5840   -2.8930   24.4440 C   0  0  1  0  0  0  0  0  0  0  0  0
   10.2570   -2.8820   23.1770 C   0  0  0  0  0  0  0  0  0  0  0  0
   10.0180   -5.3960   24.6780 C   0  0  0  0  0  0  0  0  0  0  0  0
    9.0290   -5.8990   23.6200 C   0  0  0  0  0  0  0  0  0  0  0  0
    7.5640   -5.6790   24.0400 C   0  0  0  0  0  0  0  0  0  0  0  0
    7.4140   -4.7710   26.2810 C   0  0  0  0  0  0  0  0  0  0  0  0
   10.3390   -1.8220   22.3550 N   0  0  0  0  0  0  0  0  0  0  0  0
    9.6600   -4.0770   25.2700 N   0  0  0  0  0  0  0  0  0  0  0  0
  2  1  1  0
  4  2  1  1
  6  4  1  0
  7  6  1  0
  8  7  1  0
  9  8  1  0
 11 10  1  0
 12 11  1  0
 12  3  1  0
 13  3  1  0
 13  5  1  0
 14  9  1  0
 14  4  1  0
 15 10  1  0
  8 15  1  1
 15  5  1  0
M  END
$$$$
Mpro-x1086_0A
     RDKit          3D

 13 13  0  0  0  0  0  0  0  0999 V2000
    6.9060    2.7020   -6.5300 N   0  0  0  0  0  0  0  0  0  0  0  0
    4.4670   -2.0050   -8.3630 C   0  0  0  0  0  0  0  0  0  0  0  0
    4.6700    2.3140   -5.7380 O   0  0  0  0  0  0  0  0  0  0  0  0
    5.9140   -1.7490   -8.1530 C   0  0  0  0  0  0  0  0  0  0  0  0
    6.7830   -2.8190   -8.3790 C   0  0  0  0  0  0  0  0  0  0  0  0
    8.1570   -2.6290   -8.2250 C   0  0  0  0  0  0  0  0  0  0  0  0
    8.6900   -1.3910   -7.8300 C   0  0  0  0  0  0  0  0  0  0  0  0
    7.8190   -0.3320   -7.6050 C   0  0  0  0  0  0  0  0  0  0  0  0
    6.4300   -0.4820   -7.7660 C   0  0  1  0  0  0  0  0  0  0  0  0
    5.5720    0.7510   -7.5710 C   0  0  0  0  0  0  0  0  0  0  0  0
    8.9830   -3.6370   -8.4900 F   0  0  0  0  0  0  0  0  0  0  0  0
    6.4710    0.7280   -5.1500 O   0  0  0  0  0  0  0  0  0  0  0  0
    5.8340    1.5850   -6.0800 S   0  0  1  0  0  0  0  0  0  0  0  0
  4  2  1  0
  5  4  1  0
  6  5  1  0
  7  6  1  0
  8  7  1  0
  9  8  1  0
  9  4  1  0
  9 10  1  6
 11  6  1  0
 13  3  1  0
 13 10  1  0
 13  1  1  6
 13 12  1  0
M  END
$$$$
Mpro-x1093_0A
     RDKit          3D

 19 21  0  0  0  0  0  0  0  0999 V2000
   13.8710   -1.3430   23.5990 C   0  0  0  0  0  0  0  0  0  0  0  0
    5.8990    0.7960   18.7620 C   0  0  0  0  0  0  0  0  0  0  0  0
    4.1060    1.8690   19.6250 C   0  0  0  0  0  0  0  0  0  0  0  0
    4.4730    1.5490   20.9290 C   0  0  0  0  0  0  0  0  0  0  0  0
    5.6210    0.8170   21.1480 C   0  0  0  0  0  0  0  0  0  0  0  0
    6.3680    0.4170   20.0350 C   0  0  0  0  0  0  0  0  0  0  0  0
   11.6060   -1.9010   22.9900 C   0  0  0  0  0  0  0  0  0  0  0  0
   10.1520   -1.5150   23.1300 C   0  0  0  0  0  0  0  0  0  0  0  0
   10.7980    0.8040   23.3610 C   0  0  0  0  0  0  0  0  0  0  0  0
   12.2480    0.4020   23.2390 C   0  0  0  0  0  0  0  0  0  0  0  0
    9.2040    0.1860   21.5790 C   0  0  0  0  0  0  0  0  0  0  0  0
    8.4460   -0.9250   20.8680 C   0  0  0  0  0  0  0  0  0  0  0  0
    7.5700   -0.3310   19.8170 C   0  0  0  0  0  0  0  0  0  0  0  0
    7.7770   -0.3570   18.4700 C   0  0  0  0  0  0  0  0  0  0  0  0
   12.4620   -0.9650   23.7210 N   0  0  0  0  0  0  0  0  0  0  0  0
    9.9680   -0.1520   22.6340 N   0  0  0  0  0  0  0  0  0  0  0  0
    6.7740    0.3220   17.8310 N   0  0  0  0  0  0  0  0  0  0  0  0
    4.7940    1.5180   18.5300 N   0  0  0  0  0  0  0  0  0  0  0  0
    9.1290    1.3450   21.1760 O   0  0  0  0  0  0  0  0  0  0  0  0
  4  3  1  0
  5  4  1  0
  6  5  1  0
  6  2  1  0
  8  7  1  0
 10  9  1  0
 12 11  1  0
 13 12  1  0
 13  6  1  0
 14 13  1  0
 15 10  1  0
 15  7  1  0
 15  1  1  0
 16 11  1  0
 16  9  1  0
 16  8  1  0
 17 14  1  0
 17  2  1  0
 18  3  1  0
 18  2  1  0
 19 11  1  0
M  END
$$$$
Mpro-x1101_0A
     RDKit          3D

 15 16  0  0  0  0  0  0  0  0999 V2000
   23.8450   -8.1280    3.6010 N   0  0  0  0  0  0  0  0  0  0  0  0
   25.2160   -7.2610    5.4510 C   0  0  0  0  0  0  0  0  0  0  0  0
   23.7970   -7.2960    4.8390 C   0  0  2  0  0  0  0  0  0  0  0  0
   22.7130   -7.7560    5.8430 C   0  0  0  0  0  0  0  0  0  0  0  0
   24.2460   -9.5550    3.7570 C   0  0  0  0  0  0  0  0  0  0  0  0
   24.0580   -7.4470    2.3630 C   0  0  0  0  0  0  0  0  0  0  0  0
   24.0920   -5.3990    1.1510 C   0  0  0  0  0  0  0  0  0  0  0  0
   24.5560   -7.3000   -0.0240 C   0  0  0  0  0  0  0  0  0  0  0  0
   25.1560   -7.8030   -2.4710 C   0  0  0  0  0  0  0  0  0  0  0  0
   24.6240   -9.4770    0.6690 C   0  0  0  0  0  0  0  0  0  0  0  0
   24.3930   -8.1330    1.1450 C   0  0  0  0  0  0  0  0  0  0  0  0
   23.9070   -6.0560    2.3480 N   0  0  0  0  0  0  0  0  0  0  0  0
   24.4130   -5.9140   -0.0610 N   0  0  0  0  0  0  0  0  0  0  0  0
   24.8660   -8.1690   -1.0730 N   0  0  0  0  0  0  0  0  0  0  0  0
   24.8990   -9.4740   -0.6480 N   0  0  0  0  0  0  0  0  0  0  0  0
  3  1  1  0
  3  2  1  1
  4  3  1  0
  5  1  1  0
  6  1  1  0
 11 10  1  0
 11  8  1  0
 11  6  1  0
 12  6  1  0
 12  7  1  0
 13  8  1  0
 13  7  1  0
 14  9  1  0
 14  8  1  0
 15 14  1  0
 15 10  1  0
M  END
$$$$
Mpro-x1119_0A
     RDKit          3D

 17 18  0  0  0  0  0  0  0  0999 V2000
   21.3450    7.5120   22.5380 N   0  0  0  0  0  0  0  0  0  0  0  0
   21.8690    6.4370   23.2350 C   0  0  0  0  0  0  0  0  0  0  0  0
   22.3360    2.0730   25.8810 O   0  0  0  0  0  0  0  0  0  0  0  0
   21.5170    6.2460   24.6050 C   0  0  0  0  0  0  0  0  0  0  0  0
   25.9430    5.6120   28.9540 C   0  0  0  0  0  0  0  0  0  0  0  0
   22.0380    5.1690   25.3160 C   0  0  0  0  0  0  0  0  0  0  0  0
   22.9080    4.2280   24.7330 C   0  0  2  0  0  0  0  0  0  0  0  0
   23.2490    4.4520   23.3640 C   0  0  0  0  0  0  0  0  0  0  0  0
   22.7570    5.5160   22.6190 C   0  0  0  0  0  0  0  0  0  0  0  0
   24.9720    4.3530   27.2530 C   0  0  2  0  0  0  0  0  0  0  0  0
   25.7390    4.9550   26.2520 C   0  0  0  0  0  0  0  0  0  0  0  0
   26.6300    5.9190   26.6740 C   0  0  0  0  0  0  0  0  0  0  0  0
   26.7480    6.2620   28.0190 C   0  0  0  0  0  0  0  0  0  0  0  0
   23.9820    3.4360   27.0340 N   0  0  0  0  0  0  0  0  0  0  0  0
   25.0650    4.6610   28.6120 N   0  0  0  0  0  0  0  0  0  0  0  0
   24.5320    2.3510   24.8040 O   0  0  0  0  0  0  0  0  0  0  0  0
   23.4550    2.8880   25.5340 S   0  0  1  0  0  0  0  0  0  0  0  0
  2  1  1  0
  4  2  1  0
  6  4  1  0
  7  6  1  6
  8  7  1  0
  9  8  1  0
  9  2  1  0
 11 10  1  0
 12 11  1  0
 13 12  1  0
 13  5  1  0
 10 14  1  6
 15 10  1  0
 15  5  1  0
 17 16  1  6
 17 14  1  0
 17  7  1  0
 17  3  1  0
M  END
$$$$
Mpro-x1132_0A
     RDKit          3D

 15 16  0  0  0  0  0  0  0  0999 V2000
    7.3480  -23.2860   -1.3560 C   0  0  0  0  0  0  0  0  0  0  0  0
    7.0380  -21.8110   -1.0340 C   0  0  1  0  0  0  0  0  0  0  0  0
    7.6250  -20.9070   -2.1150 C   0  0  0  0  0  0  0  0  0  0  0  0
    7.6260  -18.5810   -3.1330 C   0  0  0  0  0  0  0  0  0  0  0  0
    8.7330  -18.9420   -4.1250 C   0  0  0  0  0  0  0  0  0  0  0  0
    9.9630  -16.8090   -4.0850 C   0  0  0  0  0  0  0  0  0  0  0  0
   10.2480  -15.7990   -4.9820 C   0  0  0  0  0  0  0  0  0  0  0  0
    9.6580  -16.1590   -6.1840 C   0  0  0  0  0  0  0  0  0  0  0  0
    6.0840  -19.2450   -1.2340 C   0  0  0  0  0  0  0  0  0  0  0  0
    5.1240  -20.3790   -0.8780 C   0  0  0  0  0  0  0  0  0  0  0  0
    7.1230  -19.5550   -2.1840 N   0  0  0  0  0  0  0  0  0  0  0  0
    9.2460  -17.7210   -4.7180 N   0  0  0  0  0  0  0  0  0  0  0  0
    9.0560  -17.3220   -6.0090 N   0  0  0  0  0  0  0  0  0  0  0  0
    7.1750  -17.4820   -3.1520 O   0  0  0  0  0  0  0  0  0  0  0  0
    5.6430  -21.6920   -0.9000 O   0  0  0  0  0  0  0  0  0  0  0  0
  2  1  1  6
  3  2  1  0
  5  4  1  0
  7  6  1  0
  8  7  1  0
 10  9  1  0
 11  9  1  0
 11  4  1  0
 11  3  1  0
 12  6  1  0
 12  5  1  0
 13 12  1  0
 13  8  1  0
 14  4  1  0
 15 10  1  0
 15  2  1  0
M  END
$$$$
Mpro-x1163_0A
     RDKit          3D

 15 16  0  0  0  0  0  0  0  0999 V2000
   22.0580   20.1830    4.0280 C   0  0  0  0  0  0  0  0  0  0  0  0
   20.8370   19.3380    4.2740 C   0  0  1  0  0  0  0  0  0  0  0  0
   21.2400   17.8440    4.2560 C   0  0  0  0  0  0  0  0  0  0  0  0
   22.4520   16.3420    5.5040 C   0  0  0  0  0  0  0  0  0  0  0  0
   21.9550   15.1010    6.2390 C   0  0  0  0  0  0  0  0  0  0  0  0
   22.5720   13.9020    5.9450 C   0  0  0  0  0  0  0  0  0  0  0  0
   22.1720   12.7400    6.5710 C   0  0  0  0  0  0  0  0  0  0  0  0
   21.1560   12.7660    7.5070 C   0  0  0  0  0  0  0  0  0  0  0  0
   20.5450   13.9450    7.8100 C   0  0  0  0  0  0  0  0  0  0  0  0
   20.9440   15.1210    7.1730 C   0  0  0  0  0  0  0  0  0  0  0  0
   21.8170   18.2360    6.5540 C   0  0  0  0  0  0  0  0  0  0  0  0
   20.6590   19.2410    6.6890 C   0  0  0  0  0  0  0  0  0  0  0  0
   21.5840   17.2990    5.5370 N   0  0  0  0  0  0  0  0  0  0  0  0
   21.9450   21.3680    4.6980 O   0  0  0  0  0  0  0  0  0  0  0  0
   20.1790   19.7630    5.4560 O   0  0  0  0  0  0  0  0  0  0  0  0
  2  1  1  1
  3  2  1  0
  5  4  1  0
  6  5  1  0
  7  6  1  0
  8  7  1  0
  9  8  1  0
 10  9  1  0
 10  5  1  0
 12 11  1  0
 13  3  1  0
 13  4  1  0
 13 11  1  0
 14  1  1  0
 15  2  1  0
 15 12  1  0
M  END
$$$$
Mpro-x1187_0A
     RDKit          3D

 15 16  0  0  0  0  0  0  0  0999 V2000
    7.7350   -0.5650   -4.8300 C   0  0  0  0  0  0  0  0  0  0  0  0
    6.2130   -2.3860   -5.5540 C   0  0  0  0  0  0  0  0  0  0  0  0
    5.3910   -2.6080   -6.5980 C   0  0  0  0  0  0  0  0  0  0  0  0
    5.4800   -1.4850   -7.4330 C   0  0  0  0  0  0  0  0  0  0  0  0
    4.7230   -1.2460   -8.7620 C   0  0  0  0  0  0  0  0  0  0  0  0
    3.2530   -2.0700  -10.7030 C   0  0  0  0  0  0  0  0  0  0  0  0
    4.1280   -2.4730  -11.8510 C   0  0  2  0  0  0  0  0  0  0  0  0
    3.3990   -2.1090  -13.2940 C   0  0  0  0  0  0  0  0  0  0  0  0
    3.8430   -2.9650  -14.1510 C   0  0  0  0  0  0  0  0  0  0  0  0
    4.3520   -4.2060  -13.3230 C   0  0  0  0  0  0  0  0  0  0  0  0
    6.7710   -1.1980   -5.7450 N   0  0  0  0  0  0  0  0  0  0  0  0
    3.9780   -2.3300   -9.4310 N   0  0  0  0  0  0  0  0  0  0  0  0
    6.3090   -0.6520   -6.8950 N   0  0  0  0  0  0  0  0  0  0  0  0
    4.7360   -0.1580   -9.2190 O   0  0  0  0  0  0  0  0  0  0  0  0
    4.3120   -3.7650  -11.8380 O   0  0  0  0  0  0  0  0  0  0  0  0
  3  2  1  0
  4  3  1  0
  5  4  1  0
  7  6  1  1
  8  7  1  0
  9  8  1  0
 10  9  1  0
 11  2  1  0
 11  1  1  0
 12  6  1  0
 12  5  1  0
 13 11  1  0
 13  4  1  0
 14  5  1  0
 15 10  1  0
 15  7  1  0
M  END
$$$$
Mpro-x1226_0A
     RDKit          3D

 10 10  0  0  0  0  0  0  0  0999 V2000
   22.9560  -20.3510   23.2600 N   0  0  0  0  0  0  0  0  0  0  0  0
   23.9150  -18.1370   23.9680 C   0  0  0  0  0  0  0  0  0  0  0  0
   23.0350  -18.8760   22.9500 C   0  0  0  0  0  0  0  0  0  0  0  0
   21.7090  -20.6840   24.0230 C   0  0  0  0  0  0  0  0  0  0  0  0
   21.2880  -22.0960   23.8330 C   0  0  1  0  0  0  0  0  0  0  0  0
   21.3220  -23.1910   24.7040 C   0  0  0  0  0  0  0  0  0  0  0  0
   20.4920  -25.6180   24.4200 C   0  0  0  0  0  0  0  0  0  0  0  0
   20.7110  -24.2260   23.9870 N   0  0  0  0  0  0  0  0  0  0  0  0
   20.3410  -23.7540   22.7570 N   0  0  0  0  0  0  0  0  0  0  0  0
   20.6790  -22.5250   22.6590 N   0  0  0  0  0  0  0  0  0  0  0  0
  3  2  1  0
  3  1  1  0
  4  1  1  0
  5  4  1  1
  6  5  1  0
  8  7  1  0
  8  6  1  0
  9  8  1  0
 10  9  1  0
 10  5  1  0
M  END
$$$$
Mpro-x1235_0A
     RDKit          3D

 17 18  0  0  0  0  0  0  0  0999 V2000
   22.5250  -22.6490   19.7250 N   0  0  0  0  0  0  0  0  0  0  0  0
   24.9670  -20.0630   19.8370 C   0  0  0  0  0  0  0  0  0  0  0  0
   23.8670  -20.8850   20.1440 O   0  0  0  0  0  0  0  0  0  0  0  0
   23.6160  -21.9430   19.2950 C   0  0  0  0  0  0  0  0  0  0  0  0
   21.4400  -21.8960   14.5120 C   0  0  0  0  0  0  0  0  0  0  0  0
   21.6790  -22.9220   15.4360 C   0  0  0  0  0  0  0  0  0  0  0  0
   22.0650  -23.7750   19.0590 C   0  0  0  0  0  0  0  0  0  0  0  0
   21.3100  -25.9590   18.3090 C   0  0  0  0  0  0  0  0  0  0  0  0
   20.9160  -27.3790   18.2040 C   0  0  0  0  0  0  0  0  0  0  0  0
   21.5550  -23.8220   17.7500 C   0  0  0  0  0  0  0  0  0  0  0  0
   21.3720  -22.7230   16.7930 C   0  0  2  0  0  0  0  0  0  0  0  0
   20.8380  -21.5010   17.2200 C   0  0  0  0  0  0  0  0  0  0  0  0
   20.5990  -20.4790   16.2890 C   0  0  0  0  0  0  0  0  0  0  0  0
   20.9010  -20.6740   14.9340 C   0  0  0  0  0  0  0  0  0  0  0  0
   21.1290  -25.0980   17.3400 N   0  0  0  0  0  0  0  0  0  0  0  0
   24.2820  -22.1840   18.3030 O   0  0  0  0  0  0  0  0  0  0  0  0
   22.0150  -25.3280   19.7840 S   0  0  0  0  0  0  0  0  0  0  0  0
  3  2  1  0
  4  1  1  0
  4  3  1  0
  6  5  1  0
  7  1  1  0
  9  8  1  0
 10  7  1  0
 11  6  1  0
 11 10  1  6
 12 11  1  0
 13 12  1  0
 14  5  1  0
 14 13  1  0
 15 10  1  0
 15  8  1  0
 16  4  1  0
 17  8  1  0
 17  7  1  0
M  END
$$$$
Mpro-x1237_0A
     RDKit          3D

 14 15  0  0  0  0  0  0  0  0999 V2000
   14.5110  -25.9520    4.2890 N   0  0  0  0  0  0  0  0  0  0  0  0
   15.9340  -25.6310    7.0170 C   0  0  0  0  0  0  0  0  0  0  0  0
   15.1310  -27.9120    7.7960 O   0  0  0  0  0  0  0  0  0  0  0  0
   16.0750  -27.6070    5.4180 C   0  0  0  0  0  0  0  0  0  0  0  0
   14.8010  -27.2100    4.7270 C   0  0  0  0  0  0  0  0  0  0  0  0
   13.2190  -26.0490    3.7340 C   0  0  2  0  0  0  0  0  0  0  0  0
   12.3910  -25.0410    3.1910 C   0  0  0  0  0  0  0  0  0  0  0  0
   11.1260  -25.4090    2.7870 C   0  0  0  0  0  0  0  0  0  0  0  0
   10.6680  -26.7470    2.8930 C   0  0  0  0  0  0  0  0  0  0  0  0
   11.4580  -27.7460    3.4120 C   0  0  0  0  0  0  0  0  0  0  0  0
   12.7460  -27.3850    3.8390 C   0  0  2  0  0  0  0  0  0  0  0  0
   13.7610  -28.1240    4.4650 N   0  0  0  0  0  0  0  0  0  0  0  0
   17.5300  -27.4990    7.4950 O   0  0  0  0  0  0  0  0  0  0  0  0
   16.1810  -27.2690    7.1020 S   0  0  1  0  0  0  0  0  0  0  0  0
  5  4  1  0
  5  1  1  0
  6  1  1  0
  6  7  1  1
  8  7  1  0
  9  8  1  0
 10  9  1  0
 11 10  1  1
 11  6  1  0
 12 11  1  0
 12  5  1  0
 14  4  1  0
 14  3  1  0
 14  2  1  6
 14 13  1  0
M  END
$$$$
Mpro-x1249_0A
     RDKit          3D

 18 19  0  0  0  0  0  0  0  0999 V2000
    8.5910    0.6370   24.9500 N   0  0  0  0  0  0  0  0  0  0  0  0
    7.8470    1.3990   24.0470 C   0  0  0  0  0  0  0  0  0  0  0  0
    8.3200    2.3970   23.4800 O   0  0  0  0  0  0  0  0  0  0  0  0
    9.9750    0.9680   25.2760 C   0  0  0  0  0  0  0  0  0  0  0  0
    4.1890    0.2930   24.7610 C   0  0  0  0  0  0  0  0  0  0  0  0
    4.3610    0.9880   22.4890 C   0  0  0  0  0  0  0  0  0  0  0  0
    5.7570    1.5950   22.7340 C   0  0  0  0  0  0  0  0  0  0  0  0
   10.8950    0.3440   24.2640 C   0  0  0  0  0  0  0  0  0  0  0  0
   12.0590    1.0040   23.8800 C   0  0  0  0  0  0  0  0  0  0  0  0
   12.9070    0.4250   22.9390 C   0  0  0  0  0  0  0  0  0  0  0  0
   12.5700   -0.8110   22.3760 C   0  0  0  0  0  0  0  0  0  0  0  0
   13.4080   -1.3840   21.3940 C   0  0  0  0  0  0  0  0  0  0  0  0
   11.4100   -1.4790   22.7610 C   0  0  0  0  0  0  0  0  0  0  0  0
   10.5740   -0.9000   23.7070 C   0  0  0  0  0  0  0  0  0  0  0  0
    5.6220    0.7890   25.0630 C   0  0  0  0  0  0  0  0  0  0  0  0
   14.1100   -1.8210   20.5920 N   0  0  0  0  0  0  0  0  0  0  0  0
    6.4770    0.9020   23.8360 N   0  0  0  0  0  0  0  0  0  0  0  0
    3.6160    1.0220   23.6900 O   0  0  0  0  0  0  0  0  0  0  0  0
  2  1  1  0
  3  2  1  0
  4  1  1  0
  7  6  1  0
  8  4  1  0
  9  8  1  0
 10  9  1  0
 11 10  1  0
 12 11  1  0
 13 11  1  0
 14  8  1  0
 14 13  1  0
 15  5  1  0
 16 12  1  0
 17 15  1  0
 17  7  1  0
 17  2  1  0
 18  6  1  0
 18  5  1  0
M  END
$$$$
Mpro-x2097_0A
     RDKit          3D

  9  9  0  0  0  0  0  0  0  0999 V2000
    6.1950   -5.1510   19.7590 N   0  0  0  0  0  0  0  0  0  0  0  0
    6.9470   -4.1220   19.9440 C   0  0  0  0  0  0  0  0  0  0  0  0
    6.6750   -3.2960   21.1790 C   0  0  0  0  0  0  0  0  0  0  0  0
    7.6740   -2.5180   21.6290 N   0  0  0  0  0  0  0  0  0  0  0  0
    7.4340   -1.8060   22.7440 C   0  0  0  0  0  0  0  0  0  0  0  0
    6.2360   -1.8470   23.4200 C   0  0  0  0  0  0  0  0  0  0  0  0
    5.2790   -2.6840   22.8870 C   0  0  0  0  0  0  0  0  0  0  0  0
    5.4690   -3.4020   21.7690 N   0  0  0  0  0  0  0  0  0  0  0  0
    8.3450   -3.6710   18.8710 S   0  0  0  0  0  0  0  0  0  0  0  0
  2  1  1  0
  3  2  1  0
  4  3  1  0
  5  4  1  0
  6  5  1  0
  7  6  1  0
  8  7  1  0
  8  3  1  0
  2  9  1  0
M  END
$$$$
Mpro-x2119_0A
     RDKit          3D

  8  8  0  0  0  0  0  0  0  0999 V2000
    6.1580   -5.1330   19.7100 N   0  0  0  0  0  0  0  0  0  0  0  0
    7.0190   -4.2520   20.0770 C   0  0  0  0  0  0  0  0  0  0  0  0
    6.6240   -3.3530   21.1570 C   0  0  0  0  0  0  0  0  0  0  0  0
    7.4230   -2.4010   21.6810 N   0  0  0  0  0  0  0  0  0  0  0  0
    6.7150   -1.7560   22.6520 C   0  0  0  0  0  0  0  0  0  0  0  0
    5.5000   -2.3400   22.6810 C   0  0  0  0  0  0  0  0  0  0  0  0
    5.4320   -3.3450   21.7440 N   0  0  0  0  0  0  0  0  0  0  0  0
    8.3130   -3.6820   18.8630 S   0  0  0  0  0  0  0  0  0  0  0  0
  2  1  1  0
  3  2  1  0
  4  3  1  0
  5  4  1  0
  6  5  1  0
  7  3  1  0
  7  6  1  0
  2  8  1  0
M  END
$$$$
Mpro-x2193_0A
     RDKit          3D

 16 17  0  0  0  0  0  0  0  0999 V2000
    8.5370    2.2820   22.7830 O   0  0  0  0  0  0  0  0  0  0  0  0
    9.8420    1.7080   22.6070 S   0  0  1  0  0  0  0  0  0  0  0  0
   10.3800    1.6460   21.2780 O   0  0  0  0  0  0  0  0  0  0  0  0
   10.9740    2.5740   23.6280 C   0  0  0  0  0  0  0  0  0  0  0  0
    9.8190    0.0680   23.2690 C   0  0  1  0  0  0  0  0  0  0  0  0
    9.5760   -0.1150   24.6190 C   0  0  0  0  0  0  0  0  0  0  0  0
    9.4170   -1.3950   25.1140 C   0  0  0  0  0  0  0  0  0  0  0  0
    9.5120   -2.5020   24.2770 C   0  0  0  0  0  0  0  0  0  0  0  0
    9.8000   -2.2970   22.9260 C   0  0  0  0  0  0  0  0  0  0  0  0
    9.9550   -1.0190   22.4210 C   0  0  0  0  0  0  0  0  0  0  0  0
    9.2780   -3.7900   24.7740 N   0  0  0  0  0  0  0  0  0  0  0  0
    8.9640   -3.9890   26.1960 C   0  0  0  0  0  0  0  0  0  0  0  0
    8.2550   -5.3130   26.4070 C   0  0  0  0  0  0  0  0  0  0  0  0
    9.0360   -6.4180   25.8100 N   0  0  0  0  0  0  0  0  0  0  0  0
    9.2990   -6.1820   24.3790 C   0  0  0  0  0  0  0  0  0  0  0  0
   10.0660   -4.8930   24.2180 C   0  0  0  0  0  0  0  0  0  0  0  0
  2  1  1  0
  3  2  1  0
  2  4  1  1
  5  2  1  0
  5  6  1  6
  7  6  1  0
  8  7  1  0
  9  8  1  0
 10  9  1  0
 10  5  1  0
 11  8  1  0
 12 11  1  0
 13 12  1  0
 14 13  1  0
 15 14  1  0
 16 15  1  0
 16 11  1  0
M  END
$$$$
Mpro-P0045_0A
     RDKit          3D

 24 26  0  0  0  0  0  0  0  0999 V2000
   13.3650    6.8310   22.0800 O   0  0  0  0  0  0  0  0  0  0  0  0
   13.3830    5.6270   22.3300 C   0  0  0  0  0  0  0  0  0  0  0  0
   12.7740    4.3770   21.7080 C   0  0  0  0  0  0  0  0  0  0  0  0
   13.9760    4.9240   23.3130 N   0  0  0  0  0  0  0  0  0  0  0  0
   13.6420    3.6170   22.7170 C   0  0  1  0  0  0  0  0  0  0  0  0
   12.7580    2.8360   23.5460 O   0  0  0  0  0  0  0  0  0  0  0  0
   12.4220    1.5760   23.0940 C   0  0  0  0  0  0  0  0  0  0  0  0
   13.3970    0.6660   22.7190 C   0  0  0  0  0  0  0  0  0  0  0  0
   12.9910   -0.5810   22.2890 C   0  0  0  0  0  0  0  0  0  0  0  0
   14.1920   -1.7270   21.7660 Cl  0  0  0  0  0  0  0  0  0  0  0  0
   11.6550   -0.9330   22.2230 C   0  0  0  0  0  0  0  0  0  0  0  0
   11.0750    1.2440   23.0520 C   0  0  0  0  0  0  0  0  0  0  0  0
   10.6840   -0.0150   22.6070 C   0  0  0  0  0  0  0  0  0  0  0  0
    9.2190   -0.3740   22.5140 C   0  0  0  0  0  0  0  0  0  0  0  0
    8.5370    0.3390   21.3640 C   0  0  0  0  0  0  0  0  0  0  0  0
    8.9560    1.4080   20.9230 O   0  0  0  0  0  0  0  0  0  0  0  0
    7.4340   -0.2790   20.8840 N   0  0  0  0  0  0  0  0  0  0  0  0
    6.6760    0.2320   19.8050 C   0  0  1  0  0  0  0  0  0  0  0  0
    5.5820    1.0780   20.0610 C   0  0  0  0  0  0  0  0  0  0  0  0
    5.1310    1.3970   21.4650 C   0  0  0  0  0  0  0  0  0  0  0  0
    7.0310   -0.0200   18.4790 C   0  0  0  0  0  0  0  0  0  0  0  0
    6.3810    0.5000   17.4290 N   0  0  0  0  0  0  0  0  0  0  0  0
    5.3470    1.3090   17.6870 C   0  0  0  0  0  0  0  0  0  0  0  0
    4.9180    1.6170   18.9640 C   0  0  0  0  0  0  0  0  0  0  0  0
  2  1  1  0
  3  2  1  0
  4  2  1  0
  5  3  1  0
  5  4  1  0
  5  6  1  1
  7  6  1  0
  8  7  1  0
  9  8  1  0
 10  9  1  0
 11  9  1  0
 12  7  1  0
 13 12  1  0
 13 11  1  0
 14 13  1  0
 15 14  1  0
 16 15  1  0
 17 15  1  0
 18 17  1  1
 19 18  1  0
 20 19  1  0
 21 18  1  0
 22 21  1  0
 23 22  1  0
 24 23  1  0
 24 19  1  0
M  END
$$$$
