XX01ZVNS2B-x1719_B_301_XX01ZVNS2B-x1291+B+301+1
     RDKit          3D

 17 19  0  0  0  0  0  0  0  0999 V2000
   -4.4430    5.7340  -16.0530 N   0  0  0  0  0  0  0  0  0  0  0  0
   -5.7220    5.3400  -15.9590 C   0  0  0  0  0  0  0  0  0  0  0  0
   -6.2380    5.1890  -14.7430 N   0  0  0  0  0  0  0  0  0  0  0  0
   -7.5150    4.8070  -14.5960 C   0  0  0  0  0  0  0  0  0  0  0  0
   -8.3310    4.5290  -15.6230 N   0  0  0  0  0  0  0  0  0  0  0  0
   -7.8540    4.6660  -16.8950 C   0  0  0  0  0  0  0  0  0  0  0  0
   -8.6940    4.3900  -17.9930 C   0  0  0  0  0  0  0  0  0  0  0  0
   -8.2220    4.5280  -19.2650 C   0  0  0  0  0  0  0  0  0  0  0  0
   -6.8990    4.9370  -19.5070 C   0  0  0  0  0  0  0  0  0  0  0  0
   -6.0610    5.2080  -18.4710 C   0  0  0  0  0  0  0  0  0  0  0  0
   -6.5180    5.0840  -17.1350 C   0  0  0  0  0  0  0  0  0  0  0  0
   -8.0410    4.6290  -13.2130 C   0  0  0  0  0  0  0  0  0  0  0  0
   -8.6210    3.4240  -12.8540 C   0  0  0  0  0  0  0  0  0  0  0  0
   -9.0850    3.2690  -11.5620 C   0  0  0  0  0  0  0  0  0  0  0  0
   -8.9490    4.3090  -10.6730 C   0  0  0  0  0  0  0  0  0  0  0  0
   -8.3520    5.4740  -11.1060 C   0  0  0  0  0  0  0  0  0  0  0  0
   -7.8920    5.6550  -12.3540 N   0  0  0  0  0  0  0  0  0  0  0  0
  1  2  1  0
  2  3  2  0
  3  4  1  0
  4  5  2  0
  5  6  1  0
  6  7  2  0
  7  8  1  0
  8  9  2  0
  9 10  1  0
 10 11  2  0
  4 12  1  0
 12 13  2  0
 13 14  1  0
 14 15  2  0
 15 16  1  0
 16 17  2  0
  2 11  1  0
 12 17  1  0
  6 11  1  0
M  END
