A71EV2A-x1145_A_147_1_A71EV2A-x0528+A+201+1
     RDKit          3D

 14 15  0  0  0  0  0  0  0  0999 V2000
   33.5450   22.1840   18.9310 F   0  0  0  0  0  0  0  0  0  0  0  0
   32.2880   21.7420   19.2090 C   0  0  0  0  0  0  0  0  0  0  0  0
   31.9710   20.4420   18.9250 C   0  0  0  0  0  0  0  0  0  0  0  0
   30.6660   20.0270   19.1310 C   0  0  0  0  0  0  0  0  0  0  0  0
   29.6940   20.9040   19.5910 C   0  0  0  0  0  0  0  0  0  0  0  0
   30.0790   22.2060   19.8920 C   0  0  0  0  0  0  0  0  0  0  0  0
   31.3820   22.6320   19.7080 C   0  0  0  0  0  0  0  0  0  0  0  0
   28.2360   20.5100   19.5630 C   0  0  0  0  0  0  0  0  0  0  0  0
   27.4860   20.4730   20.9010 C   0  0  1  0  0  0  0  0  0  0  0  0
   27.3750   21.8730   21.5050 C   0  0  0  0  0  0  0  0  0  0  0  0
   26.4480   21.9760   22.6340 N   0  0  0  0  0  0  0  0  0  0  0  0
   25.1070   21.5650   22.2630 C   0  0  0  0  0  0  0  0  0  0  0  0
   25.1630   20.1220   21.9240 C   0  0  0  0  0  0  0  0  0  0  0  0
   26.0790   19.8910   20.7250 C   0  0  0  0  0  0  0  0  0  0  0  0
  2  1  1  0
  2  7  2  0
  7  6  1  0
  6  5  2  0
  8  5  1  0
  9  8  1  6
  9 14  1  0
 14 13  1  0
 13 12  1  0
 12 11  1  0
 11 10  1  0
 10  9  1  0
  5  4  1  0
  4  3  2  0
  3  2  1  0
M  END
