A71EV2A-x0473_A_147_1_A71EV2A-x0526+A+147+1
     RDKit          3D

 15 16  0  0  0  0  0  0  0  0999 V2000
   -0.8000   12.4870   20.6600 O   0  0  0  0  0  0  0  0  0  0  0  0
    0.2850   13.2120   20.1070 S   0  0  0  0  0  0  0  0  0  0  0  0
    0.9920   14.0790   21.0080 O   0  0  0  0  0  0  0  0  0  0  0  0
    1.5350   12.0200   19.3990 C   0  0  0  0  0  0  0  0  0  0  0  0
    2.1990   11.2860   20.5630 C   0  0  0  0  0  0  0  0  0  0  0  0
    3.1200   10.2180   20.0480 C   0  0  0  0  0  0  0  0  0  0  0  0
    4.1850   10.7560   19.4040 O   0  0  0  0  0  0  0  0  0  0  0  0
    3.7170   11.5270   18.2670 C   0  0  0  0  0  0  0  0  0  0  0  0
    2.7530   12.6230   18.6900 C   0  0  0  0  0  0  0  0  0  0  0  0
   -0.2570   14.0320   18.8330 N   0  0  0  0  0  0  0  0  0  0  0  0
   -1.2320   13.5310   17.8470 C   0  0  0  0  0  0  0  0  0  0  0  0
   -1.6510   14.5770   16.8210 C   0  0  0  0  0  0  0  0  0  0  0  0
   -2.1100   13.7700   15.6220 C   0  0  0  0  0  0  0  0  0  0  0  0
   -1.4840   12.4050   15.7770 C   0  0  0  0  0  0  0  0  0  0  0  0
   -0.6240   12.4700   17.0290 C   0  0  0  0  0  0  0  0  0  0  0  0
  3  2  2  0
  2  1  2  0
 10  2  1  0
 11 10  1  0
 11 15  1  0
 15 14  1  0
 14 13  1  0
 13 12  1  0
 12 11  1  0
  4  2  1  0
  4  9  1  0
  9  8  1  0
  8  7  1  0
  7  6  1  0
  6  5  1  0
  5  4  1  0
M  END
