A71EV2A-x1779_A_201_1_A71EV2A-x0526+A+147+1
     RDKit          3D

 15 16  0  0  0  0  0  0  0  0999 V2000
    8.4730   14.2090   26.9250 O   0  0  0  0  0  0  0  0  0  0  0  0
    8.5670   13.1560   26.3040 C   0  0  0  0  0  0  0  0  0  0  0  0
    7.4600   12.0850   26.2760 C   0  0  0  0  0  0  0  0  0  0  0  0
    7.7850   10.7870   25.7660 O   0  0  0  0  0  0  0  0  0  0  0  0
    9.6640   12.8730   25.5750 N   0  0  0  0  0  0  0  0  0  0  0  0
    9.8240   11.7150   24.8150 C   0  0  0  0  0  0  0  0  0  0  0  0
    8.8480   10.7140   24.8980 C   0  0  0  0  0  0  0  0  0  0  0  0
    8.9450    9.5700   24.1280 C   0  0  0  0  0  0  0  0  0  0  0  0
   10.0250    9.4110   23.2810 C   0  0  0  0  0  0  0  0  0  0  0  0
   10.9080   11.5510   23.9580 C   0  0  0  0  0  0  0  0  0  0  0  0
   11.0070   10.3960   23.1830 C   0  0  0  0  0  0  0  0  0  0  0  0
   12.1330   10.1860   22.2310 C   0  0  0  0  0  0  0  0  0  0  0  0
   12.1320    9.2350   21.4720 O   0  0  0  0  0  0  0  0  0  0  0  0
   13.2560   11.1680   22.1960 C   0  0  0  0  0  0  0  0  0  0  0  0
   14.0150   11.1910   20.8830 C   0  0  0  0  0  0  0  0  0  0  0  0
 15 14  1  0
 14 12  1  0
 13 12  2  0
 12 11  1  0
 11  9  1  0
  9  8  2  0
  8  7  1  0
  7  4  1  0
  4  3  1  0
  3  2  1  0
  2  1  2  0
  5  2  1  0
  6  5  1  0
  7  6  2  0
 10  6  1  0
 11 10  2  0
M  END
