XX01ZVNS2B-x0788_B_302_XX01ZVNS2B-x0788+B+302+1
     RDKit          3D

 15 16  0  0  0  0  0  0  0  0999 V2000
   -6.8440   10.2450  -24.6260 O   0  0  0  0  0  0  0  0  0  0  0  0
   -6.8910    9.6810  -25.9440 S   0  0  0  0  0  0  0  0  0  0  0  0
   -5.8960   10.0870  -26.8920 O   0  0  0  0  0  0  0  0  0  0  0  0
   -6.8510    7.9350  -25.8000 C   0  0  0  0  0  0  0  0  0  0  0  0
   -8.4780   10.1010  -26.6320 C   0  0  0  0  0  0  0  0  0  0  0  0
   -9.4270    9.2440  -27.1260 N   0  0  0  0  0  0  0  0  0  0  0  0
  -10.5540    9.9910  -27.3770 C   0  0  0  0  0  0  0  0  0  0  0  0
  -10.2320   11.2660  -27.0660 C   0  0  0  0  0  0  0  0  0  0  0  0
   -8.9350   11.3410  -26.6110 N   0  0  0  0  0  0  0  0  0  0  0  0
   -9.2660    7.8200  -27.4100 C   0  0  0  0  0  0  0  0  0  0  0  0
   -8.8740    7.4310  -28.8050 C   0  0  0  0  0  0  0  0  0  0  0  0
   -7.5350    7.3340  -29.1420 N   0  0  0  0  0  0  0  0  0  0  0  0
   -7.4220    6.8460  -30.3390 C   0  0  0  0  0  0  0  0  0  0  0  0
   -8.8900    6.5060  -31.1410 S   0  0  0  0  0  0  0  0  0  0  0  0
   -9.7360    7.0420  -29.7710 C   0  0  0  0  0  0  0  0  0  0  0  0
  4  2  1  0
  3  2  2  0
  2  1  2  0
  5  2  1  0
  5  9  2  0
  9  8  1  0
  8  7  2  0
  7  6  1  0
  6  5  1  0
 10  6  1  0
 11 10  1  0
 11 15  2  0
 15 14  1  0
 14 13  1  0
 13 12  2  0
 12 11  1  0
M  END
