A71EV2A-x0836_A_301_1_A71EV2A-x0526+A+147+1
     RDKit          3D

 16 17  0  0  0  0  0  0  0  0999 V2000
    4.9030   13.2080   26.9440 N   0  0  0  0  0  0  0  0  0  0  0  0
    5.4950   11.9110   27.2560 C   0  0  2  0  0  0  0  0  0  0  0  0
    6.0890   11.8380   28.6530 C   0  0  0  0  0  0  0  0  0  0  0  0
    6.9790   12.8070   29.0940 C   0  0  0  0  0  0  0  0  0  0  0  0
    7.5630   12.7110   30.3460 C   0  0  0  0  0  0  0  0  0  0  0  0
    7.2690   11.6440   31.1700 C   0  0  0  0  0  0  0  0  0  0  0  0
    6.3860   10.6760   30.7430 C   0  0  0  0  0  0  0  0  0  0  0  0
    5.7980   10.7710   29.4940 C   0  0  0  0  0  0  0  0  0  0  0  0
    6.5380   11.4770   26.2380 C   0  0  0  0  0  0  0  0  0  0  0  0
    6.7040   10.1320   25.9530 C   0  0  0  0  0  0  0  0  0  0  0  0
    7.6200    9.7090   25.0080 C   0  0  0  0  0  0  0  0  0  0  0  0
    7.3270   12.3960   25.5600 C   0  0  0  0  0  0  0  0  0  0  0  0
    8.2550   11.9870   24.6170 C   0  0  0  0  0  0  0  0  0  0  0  0
    8.4030   10.6350   24.3420 C   0  0  0  0  0  0  0  0  0  0  0  0
    9.3390   10.2610   23.4120 O   0  0  0  0  0  0  0  0  0  0  0  0
    9.6100    8.8730   23.2390 C   0  0  0  0  0  0  0  0  0  0  0  0
 16 15  1  0
 15 14  1  0
 14 11  1  0
 11 10  2  0
 10  9  1  0
 12  9  2  0
 13 12  1  0
 14 13  2  0
  9  2  1  0
  2  1  1  6
  3  2  1  0
  3  8  2  0
  8  7  1  0
  7  6  2  0
  6  5  1  0
  5  4  2  0
  4  3  1  0
M  END
