A71EV2A-x1148_A_201_1_A71EV2A-x0526+A+147+1
     RDKit          3D

  6  6  0  0  0  0  0  0  0  0999 V2000
    9.4330    9.5480   23.4120 Br  0  0  0  0  0  0  0  0  0  0  0  0
    8.4560   10.7300   24.4900 C   0  0  0  0  0  0  0  0  0  0  0  0
    8.7030   12.0700   24.5740 N   0  0  0  0  0  0  0  0  0  0  0  0
    7.8160   12.5480   25.4350 C   0  0  0  0  0  0  0  0  0  0  0  0
    7.0110   11.5880   25.9110 N   0  0  0  0  0  0  0  0  0  0  0  0
    7.3930   10.4140   25.3280 C   0  0  0  0  0  0  0  0  0  0  0  0
  2  1  1  0
  2  6  2  0
  6  5  1  0
  5  4  1  0
  4  3  2  0
  3  2  1  0
M  END
