A71EV2A-x1019_A_147_1_A71EV2A-x0526+A+147+1
     RDKit          3D

 13 13  0  0  0  0  0  0  0  0999 V2000
   12.5620   12.7810   26.1710 O   0  0  0  0  0  0  0  0  0  0  0  0
   12.5630   12.6570   24.9650 C   0  0  0  0  0  0  0  0  0  0  0  0
   13.5490   12.1290   24.2990 O   0  0  0  0  0  0  0  0  0  0  0  0
   11.4130   13.1030   24.1020 C   0  0  0  0  0  0  0  0  0  0  0  0
   10.0730   12.7640   24.7130 C   0  0  0  0  0  0  0  0  0  0  0  0
    9.5840   11.4550   24.6850 C   0  0  0  0  0  0  0  0  0  0  0  0
   10.4200   10.5290   24.1300 O   0  0  0  0  0  0  0  0  0  0  0  0
    9.8290    9.4510   23.4070 C   0  0  0  0  0  0  0  0  0  0  0  0
    8.3440   11.1490   25.2150 C   0  0  0  0  0  0  0  0  0  0  0  0
    9.2850   13.7510   25.3010 C   0  0  0  0  0  0  0  0  0  0  0  0
    8.0400   13.4570   25.8200 C   0  0  0  0  0  0  0  0  0  0  0  0
    7.5880   12.1620   25.7630 C   0  0  0  0  0  0  0  0  0  0  0  0
    5.8680   11.7530   26.4360 Br  0  0  0  0  0  0  0  0  0  0  0  0
 13 12  1  0
 12  9  2  0
  9  6  1  0
  7  6  1  0
  8  7  1  0
  6  5  2  0
  5  4  1  0
  4  2  1  0
  3  2  1  0
  2  1  2  0
 10  5  1  0
 11 10  2  0
 12 11  1  0
M  END
