A71EV2A-x1445_B_201_1_A71EV2A-x0526+A+147+1
     RDKit          3D

 18 18  0  0  0  0  0  0  0  0999 V2000
    0.7930   10.8450   29.2880 F   0  0  0  0  0  0  0  0  0  0  0  0
    1.6450   10.0100   29.8890 C   0  0  0  0  0  0  0  0  0  0  0  0
    1.3730   10.0620   31.1930 F   0  0  0  0  0  0  0  0  0  0  0  0
    1.3220    8.7830   29.4820 F   0  0  0  0  0  0  0  0  0  0  0  0
    3.0820   10.3540   29.5910 C   0  0  2  0  0  0  0  0  0  0  0  0
    3.3160   11.8390   29.8690 C   0  0  0  0  0  0  0  0  0  0  0  0
    3.4070    9.9970   28.1340 C   0  0  0  0  0  0  0  0  0  0  0  0
    4.7720   10.4460   27.6340 C   0  0  0  0  0  0  0  0  0  0  0  0
    5.6110   10.9550   28.3750 O   0  0  0  0  0  0  0  0  0  0  0  0
    4.9760   10.2760   26.2960 N   0  0  0  0  0  0  0  0  0  0  0  0
    6.1390   10.6150   25.6050 C   0  0  0  0  0  0  0  0  0  0  0  0
    7.0540    9.8460   24.9410 C   0  0  0  0  0  0  0  0  0  0  0  0
    6.5020   11.9190   25.4180 N   0  0  0  0  0  0  0  0  0  0  0  0
    5.8550   13.1390   25.8830 C   0  0  0  0  0  0  0  0  0  0  0  0
    7.6220   12.0170   24.6520 N   0  0  0  0  0  0  0  0  0  0  0  0
    7.9540   10.7400   24.3440 C   0  0  0  0  0  0  0  0  0  0  0  0
    8.9740   10.4680   23.5240 O   0  0  0  0  0  0  0  0  0  0  0  0
    9.2580    9.0780   23.2270 C   0  0  0  0  0  0  0  0  0  0  0  0
 18 17  1  0
 17 16  1  0
 16 12  1  0
 12 11  2  0
 11 10  1  0
 10  8  1  0
  9  8  2  0
  8  7  1  0
  7  5  1  0
  5  6  1  6
  5  2  1  0
  3  2  1  0
  4  2  1  0
  2  1  1  0
 13 11  1  0
 14 13  1  0
 15 13  1  0
 16 15  2  0
M  END
