XX01ZVNS2B-x0969_B_203_XX01ZVNS2B-x1291+B+301+1
     RDKit          3D

 10 11  0  0  0  0  0  0  0  0999 V2000
   -8.4800    4.9990  -11.7660 C   0  0  0  0  0  0  0  0  0  0  0  0
   -8.6480    4.9000  -10.2680 C   0  0  0  0  0  0  0  0  0  0  0  0
   -8.8080    3.7600   -9.5320 C   0  0  0  0  0  0  0  0  0  0  0  0
   -8.9410    4.1330   -8.2420 N   0  0  0  0  0  0  0  0  0  0  0  0
   -8.8710    5.4870   -8.0940 N   0  0  0  0  0  0  0  0  0  0  0  0
   -8.6910    5.9440   -9.3250 C   0  0  0  0  0  0  0  0  0  0  0  0
   -8.8540    2.3060   -9.8920 C   0  0  0  0  0  0  0  0  0  0  0  0
   -8.7430    1.4190   -8.7280 N   0  0  0  0  0  0  0  0  0  0  0  0
   -9.6000    1.8720   -7.6120 C   0  0  0  0  0  0  0  0  0  0  0  0
   -9.1560    3.2320   -7.1030 C   0  0  0  0  0  0  0  0  0  0  0  0
  2  1  1  0
  2  6  1  0
  6  5  2  0
  5  4  1  0
  4 10  1  0
 10  9  1  0
  9  8  1  0
  8  7  1  0
  7  3  1  0
  3  2  2  0
  4  3  1  0
M  END
