A71EV2A-x0412_A_147_1_A71EV2A-x0211+A+302+1
     RDKit          3D

 15 16  0  0  0  0  0  0  0  0999 V2000
   17.3810   -9.9590   12.6780 O   0  0  0  0  0  0  0  0  0  0  0  0
   18.3940   -9.2890   12.4920 C   0  0  0  0  0  0  0  0  0  0  0  0
   18.9580   -8.3810   13.5440 C   0  0  0  0  0  0  0  0  0  0  0  0
   19.0710   -9.3320   11.3090 N   0  0  0  0  0  0  0  0  0  0  0  0
   18.6430  -10.1270   10.2610 C   0  0  0  0  0  0  0  0  0  0  0  0
   17.7720  -11.1100   10.3400 N   0  0  0  0  0  0  0  0  0  0  0  0
   17.7450  -11.6600    9.0540 C   0  0  0  0  0  0  0  0  0  0  0  0
   18.6200  -10.9740    8.2170 C   0  0  0  0  0  0  0  0  0  0  0  0
   19.1750   -9.9730    9.0070 N   0  0  0  0  0  0  0  0  0  0  0  0
   20.0820   -8.9050    8.5650 C   0  0  0  0  0  0  0  0  0  0  0  0
   19.5570   -7.5340    8.9280 C   0  0  0  0  0  0  0  0  0  0  0  0
   18.8130  -11.3370    6.8890 C   0  0  0  0  0  0  0  0  0  0  0  0
   18.1030  -12.4300    6.4130 C   0  0  0  0  0  0  0  0  0  0  0  0
   17.2260  -13.1320    7.2400 C   0  0  0  0  0  0  0  0  0  0  0  0
   17.0220  -12.7460    8.5600 C   0  0  0  0  0  0  0  0  0  0  0  0
 11 10  1  0
 10  9  1  0
  9  5  1  0
  5  4  1  0
  4  2  1  0
  2  1  2  0
  3  2  1  0
  6  5  2  0
  7  6  1  0
  7 15  2  0
 15 14  1  0
 14 13  2  0
 13 12  1  0
 12  8  2  0
  9  8  1  0
  8  7  1  0
M  END
