A71EV2A-x0528_A_201_1_A71EV2A-x0528+A+201+1
     RDKit          3D

 15 16  0  0  0  0  0  0  0  0999 V2000
   27.6850   19.3480   22.3730 O   0  0  0  0  0  0  0  0  0  0  0  0
   27.2430   19.8490   21.3610 C   0  0  0  0  0  0  0  0  0  0  0  0
   25.9680   20.1860   21.1480 N   0  0  0  0  0  0  0  0  0  0  0  0
   24.8400   19.5750   21.8440 C   0  0  0  0  0  0  0  0  0  0  0  0
   28.0100   20.2180   20.1060 C   0  0  1  0  0  0  0  0  0  0  0  0
   27.2220   21.4160   19.5970 C   0  0  0  0  0  0  0  0  0  0  0  0
   25.8040   21.2100   20.1250 C   0  0  0  0  0  0  0  0  0  0  0  0
   29.3670   20.4830   20.4800 O   0  0  0  0  0  0  0  0  0  0  0  0
   30.1940   21.1490   19.6040 C   0  0  0  0  0  0  0  0  0  0  0  0
   30.9220   20.4350   18.6660 C   0  0  0  0  0  0  0  0  0  0  0  0
   31.8470   21.1320   17.9260 C   0  0  0  0  0  0  0  0  0  0  0  0
   32.6280   20.4350   17.0720 F   0  0  0  0  0  0  0  0  0  0  0  0
   32.0570   22.4760   18.0420 C   0  0  0  0  0  0  0  0  0  0  0  0
   31.3060   23.1720   18.9710 C   0  0  0  0  0  0  0  0  0  0  0  0
   30.3690   22.5180   19.7510 C   0  0  0  0  0  0  0  0  0  0  0  0
  4  3  1  0
  3  7  1  0
  7  6  1  0
  6  5  1  0
  5  8  1  1
  9  8  1  0
  9 15  2  0
 15 14  1  0
 14 13  2  0
 13 11  1  0
 12 11  1  0
 11 10  2  0
 10  9  1  0
  5  2  1  0
  3  2  1  0
  2  1  2  0
M  END
