XX01ZVNS2B-x2992_ASAP-0016806
  PyMOL3.0          3D                             0

 29 31  0  0  0  0  0  0  0  0999 V2000
   -8.7130    2.0570   -8.6870 N   0  0  0  0  0  0  0  0  0  0  0  0
   -9.7510    2.9310   -9.2170 C   0  0  0  0  0  0  0  0  0  0  0  0
   -6.7870    5.6620  -14.3120 O   0  0  0  0  0  0  0  0  0  0  0  0
  -11.1510    4.1640  -18.5840 Cl  0  0  0  0  0  0  0  0  0  0  0  0
   -9.1960    4.0010  -10.1410 C   0  0  0  0  0  0  0  0  0  0  0  0
   -8.7510    4.6400  -13.7910 N   0  0  0  0  0  0  0  0  0  0  0  0
   -4.3470    5.3690  -18.0990 O   0  0  0  0  0  0  0  0  0  0  0  0
   -8.8670    5.2520   -9.6410 C   0  0  0  0  0  0  0  0  0  0  0  0
   -6.2410    5.0570  -19.3680 N   0  0  0  0  0  0  0  0  0  0  0  0
   -4.2900    5.2920  -20.3660 O   0  0  0  0  0  0  0  0  0  0  0  0
   -8.5150    6.2860  -10.4920 C   0  0  0  0  0  0  0  0  0  0  0  0
   -8.4760    6.0840  -11.8590 C   0  0  0  0  0  0  0  0  0  0  0  0
   -8.7700    4.8300  -12.3800 C   0  0  0  0  0  0  0  0  0  0  0  0
   -7.8090    5.0800  -14.6660 C   0  0  0  0  0  0  0  0  0  0  0  0
   -8.0910    4.8480  -16.1180 C   0  0  0  0  0  0  0  0  0  0  0  0
   -9.3490    4.5070  -16.6030 C   0  0  0  0  0  0  0  0  0  0  0  0
   -9.5410    4.4120  -17.9690 C   0  0  0  0  0  0  0  0  0  0  0  0
   -8.5100    4.5910  -18.8660 C   0  0  0  0  0  0  0  0  0  0  0  0
   -7.2480    4.9150  -18.3830 C   0  0  0  0  0  0  0  0  0  0  0  0
   -4.9090    5.2370  -19.1670 C   0  0  0  0  0  0  0  0  0  0  0  0
   -2.8630    5.5780  -20.3370 C   0  0  0  0  0  0  0  0  0  0  0  0
   -2.6800    7.0370  -20.6410 C   0  0  0  0  0  0  0  0  0  0  0  0
   -2.5390    7.4760  -21.9500 C   0  0  0  0  0  0  0  0  0  0  0  0
   -2.4300    8.8270  -22.2350 C   0  0  0  0  0  0  0  0  0  0  0  0
   -2.4610    9.7540  -21.2180 C   0  0  0  0  0  0  0  0  0  0  0  0
   -2.5970    9.3320  -19.9140 C   0  0  0  0  0  0  0  0  0  0  0  0
   -2.7000    7.9820  -19.6250 C   0  0  0  0  0  0  0  0  0  0  0  0
   -7.0430    5.0520  -17.0130 C   0  0  0  0  0  0  0  0  0  0  0  0
   -9.1200    3.7930  -11.5160 C   0  0  0  0  0  0  0  0  0  0  0  0
  1  2  1  0  0  0  0
  2  5  1  0  0  0  0
  6 13  1  0  0  0  0
  7 20  2  0  0  0  0
  5  8  4  0  0  0  0
  9 19  1  0  0  0  0
 10 21  1  0  0  0  0
  8 11  4  0  0  0  0
 11 12  4  0  0  0  0
 12 13  4  0  0  0  0
 13 29  4  0  0  0  0
  3 14  2  0  0  0  0
  6 14  1  0  0  0  0
 14 15  1  0  0  0  0
 15 16  4  0  0  0  0
  4 17  1  0  0  0  0
 16 17  4  0  0  0  0
 17 18  4  0  0  0  0
 18 19  4  0  0  0  0
 19 28  4  0  0  0  0
  9 20  1  0  0  0  0
 10 20  1  0  0  0  0
 21 22  1  0  0  0  0
 22 23  4  0  0  0  0
 22 27  4  0  0  0  0
 23 24  4  0  0  0  0
 24 25  4  0  0  0  0
 25 26  4  0  0  0  0
 26 27  4  0  0  0  0
 15 28  4  0  0  0  0
  5 29  4  0  0  0  0
M  END
>  <pdb_header>
REMARK --------------------- added by autoBUSTER ---------------------------------START
REMARK run at   = Tue Mar  5 17:19:42 GMT 2024
REMARK     in   = /dls/labxchem/data/lb32627/lb32627-65/processing/analysis/model_building/XX01ZVNS2B-x2992
REMARK     user = kyf22269
REMARK     cmd  = \
REMARK            /dls_sw/apps/GPhL/BUSTER/20211020/autoBUSTER/bin/linux64/refine \
REMARK            -p \
REMARK            /dls/labxchem/data/lb32627/lb32627-65/processing/analysis/model_building/XX01ZVNS2B-x2992/cootOut/Refine_4/in.pdb \
REMARK            -m \
REMARK            /dls/labxchem/data/lb32627/lb32627-65/processing/analysis/model_building/XX01ZVNS2B-x2992/XX01ZVNS2B-x2992.free.mtz \
REMARK            -l \
REMARK            /dls/labxchem/data/lb32627/lb32627-65/processing/analysis/model_building/XX01ZVNS2B-x2992/ASAP-0016806-001.cif \
REMARK            -autoncs -M TLSbasic -d Refine_4
REMARK Files used:
REMARK   PDB              = Refine_4/pdbchk.pdb
REMARK   MTZ              = /dls/labxchem/data/lb32627/lb32627-65/processing/analysis/model_building/XX01ZVNS2B-x2992/XX01ZVNS2B-x2992.free.mtz
REMARK output written to subdirectory = Refine_4
REMARK best refinement for F,SIGF with R/Rfree 0.2462/0.2818
REMARK header records are copied from input PDB file (apart from REMARK 3!)
REMARK --------------------- added by autoBUSTER -----------------------------------END
REMARK --------------------- added by autoBUSTER -------------------------------
REMARK run at   = Tue Mar  5 14:55:49 GMT 2024                                  
REMARK     in   = /dls/labxchem/data/lb32627/lb32627-65/processing/analysis/mode
REMARK     user = kyf22269                                                      
REMARK     cmd  = \                                                             
REMARK            /dls_sw/apps/GPhL/BUSTER/20211020/autoBUSTER/bin/linux64/refin
REMARK            -p \                                                          
REMARK            /dls/labxchem/data/lb32627/lb32627-65/processing/analysis/mode
REMARK            -m \                                                          
REMARK            /dls/labxchem/data/lb32627/lb32627-65/processing/analysis/mode
REMARK            -l \                                                          
REMARK            /dls/labxchem/data/lb32627/lb32627-65/processing/analysis/mode
REMARK            -autoncs -M TLSbasic -d Refine_3                              
REMARK Files used:                                                              
REMARK   PDB              = Refine_3/pdbchk.pdb                                 
REMARK   MTZ              = /dls/labxchem/data/lb32627/lb32627-65/processing/ana
REMARK output written to subdirectory = Refine_3                                
REMARK best refinement for F,SIGF with R/Rfree 0.2486/0.2818                    
REMARK header records are copied from input PDB file (apart from REMARK 3!)     
REMARK --------------------- added by autoBUSTER -------------------------------
REMARK --------------------- added by autoBUSTER -------------------------------
REMARK run at   = Thu Feb 29 17:35:24 GMT 2024                                  
REMARK     in   = /dls/labxchem/data/lb32627/lb32627-65/processing/analysis/mode
REMARK     user = kyf22269                                                      
REMARK     cmd  = \                                                             
REMARK            /dls_sw/apps/GPhL/BUSTER/20211020/autoBUSTER/bin/linux64/refin
REMARK            -p \                                                          
REMARK            /dls/labxchem/data/lb32627/lb32627-65/processing/analysis/mode
REMARK            -m \                                                          
REMARK            /dls/labxchem/data/lb32627/lb32627-65/processing/analysis/mode
REMARK            -l \                                                          
REMARK            /dls/labxchem/data/lb32627/lb32627-65/processing/analysis/mode
REMARK            -autoncs -M TLSbasic -d Refine_2                              
REMARK Files used:                                                              
REMARK   PDB              = Refine_2/pdbchk.pdb                                 
REMARK   MTZ              = /dls/labxchem/data/lb32627/lb32627-65/processing/ana
REMARK output written to subdirectory = Refine_2                                
REMARK best refinement for F,SIGF with R/Rfree 0.2498/0.2846                    
REMARK header records are copied from input PDB file (apart from REMARK 3!)     
REMARK --------------------- added by autoBUSTER -------------------------------
REMARK --------------------- added by autoBUSTER -------------------------------
REMARK run at   = Thu Feb 29 11:52:59 GMT 2024                                  
REMARK     in   = /dls/labxchem/data/lb32627/lb32627-65/processing/analysis/mode
REMARK     user = kyf22269                                                      
REMARK     cmd  = \                                                             
REMARK            /dls_sw/apps/GPhL/BUSTER/20211020/autoBUSTER/bin/linux64/refin
REMARK            -p \                                                          
REMARK            /dls/labxchem/data/lb32627/lb32627-65/processing/analysis/mode
REMARK            -m \                                                          
REMARK            /dls/labxchem/data/lb32627/lb32627-65/processing/analysis/mode
REMARK            -l \                                                          
REMARK            /dls/labxchem/data/lb32627/lb32627-65/processing/analysis/mode
REMARK            -autoncs -M TLSbasic StopOnGellySanityCheckError=no -d \      
REMARK            Refine_1                                                      
REMARK Files used:                                                              
REMARK   PDB              = Refine_1/pdbchk.pdb                                 
REMARK   MTZ              = /dls/labxchem/data/lb32627/lb32627-65/processing/ana
REMARK output written to subdirectory = Refine_1                                
REMARK best refinement for F,SIGF with R/Rfree 0.2519/0.2886                    
REMARK header records are copied from input PDB file (apart from REMARK 3!)     
REMARK --------------------- added by autoBUSTER -------------------------------
HEADER    ----                                    23-FEB-23                     
TITLE     ---                                                                   
COMPND    ---                                                                   
EXPDTA    X-RAY DIFFRACTION
REMARK   2                                                            
REMARK   2 RESOLUTION.    1.74 ANGSTROMS.
REMARK   3
REMARK   3 REFINEMENT.
REMARK   3   PROGRAM     : BUSTER 2.10.4 (20-OCT-2021)
REMARK   3   AUTHORS     : BRICOGNE,BLANC,BRANDL,FLENSBURG,KELLER,
REMARK   3               : PACIOREK,ROVERSI,SHARFF,SMART,VONRHEIN,WOMACK;
REMARK   3               : MATTHEWS,TEN EYCK,TRONRUD
REMARK   3
REMARK   3  DATA USED IN REFINEMENT.
REMARK   3   RESOLUTION RANGE HIGH (ANGSTROMS) : 1.739
REMARK   3   RESOLUTION RANGE LOW  (ANGSTROMS) : 23.19
REMARK   3   DATA CUTOFF            (SIGMA(F)) : 0.000
REMARK   3   COMPLETENESS FOR RANGE        (%) : 90.2
REMARK   3   NUMBER OF REFLECTIONS             : 19702
REMARK   3
REMARK   3  FIT TO DATA USED IN REFINEMENT.
REMARK   3   CROSS-VALIDATION METHOD          : THROUGHOUT
REMARK   3   FREE R VALUE TEST SET SELECTION  : RANDOM
REMARK   3   R VALUE     (WORKING + TEST SET) : 0.2480
REMARK   3   R VALUE            (WORKING SET) : 0.2462
REMARK   3   FREE R VALUE                     : 0.2818
REMARK   3   FREE R VALUE TEST SET SIZE   (%) : 5.000
REMARK   3   FREE R VALUE TEST SET COUNT      : 985
REMARK   3   ESTIMATED ERROR OF FREE R VALUE  : NULL
REMARK   3
REMARK   3  FIT IN THE HIGHEST RESOLUTION BIN.
REMARK   3   TOTAL NUMBER OF BINS USED           : 50
REMARK   3   BIN RESOLUTION RANGE HIGH       (A) : 1.74
REMARK   3   BIN RESOLUTION RANGE LOW        (A) : 1.78
REMARK   3   BIN COMPLETENESS (WORKING+TEST) (%) : 26.94
REMARK   3   REFLECTIONS IN BIN   (WORKING+TEST) : 403
REMARK   3   BIN R VALUE          (WORKING+TEST) : 0.4924
REMARK   3   REFLECTIONS IN BIN    (WORKING SET) : 382
REMARK   3   BIN R VALUE           (WORKING SET) : 0.4888
REMARK   3   BIN FREE R VALUE                    : 0.5418
REMARK   3   BIN FREE R VALUE TEST SET SIZE  (%) : 5.21
REMARK   3   BIN FREE R VALUE TEST SET COUNT     : 21
REMARK   3   ESTIMATED ERROR OF BIN FREE R VALUE : NULL
REMARK   3
REMARK   3  NUMBER OF NON-HYDROGEN ATOMS USED IN REFINEMENT.
REMARK   3   PROTEIN ATOMS            : 1476
REMARK   3   NUCLEIC ACID ATOMS       : 0
REMARK   3   HETEROGEN ATOMS          : 42
REMARK   3   SOLVENT ATOMS            : 91
REMARK   3
REMARK   3  B VALUES.
REMARK   3   FROM WILSON PLOT           (A**2) : 33.21
REMARK   3   MEAN B VALUE      (OVERALL, A**2) : 50.88
REMARK   3   OVERALL ANISOTROPIC B VALUE.
REMARK   3    B11 (A**2) : -6.95590
REMARK   3    B22 (A**2) : -6.95590
REMARK   3    B33 (A**2) : 13.91170
REMARK   3    B12 (A**2) : 0.00000
REMARK   3    B13 (A**2) : 0.00000
REMARK   3    B23 (A**2) : 0.00000
REMARK   3
REMARK   3  ESTIMATED COORDINATE ERROR.
REMARK   3   ESD FROM LUZZATI PLOT                    (A) : 0.36
REMARK   3   DPI (BLOW EQ-10) BASED ON R VALUE        (A) : 0.166
REMARK   3   DPI (BLOW EQ-9) BASED ON FREE R VALUE    (A) : 0.151
REMARK   3   DPI (CRUICKSHANK) BASED ON R VALUE       (A) : 0.156
REMARK   3   DPI (CRUICKSHANK) BASED ON FREE R VALUE  (A) : 0.146
REMARK   3
REMARK   3   REFERENCES: BLOW, D. (2002) ACTA CRYST D58, 792-797
REMARK   3               CRUICKSHANK, D.W.J. (1999) ACTA CRYST D55, 583-601
REMARK   3
REMARK   3  CORRELATION COEFFICIENTS.
REMARK   3   CORRELATION COEFFICIENT FO-FC      : 0.931
REMARK   3   CORRELATION COEFFICIENT FO-FC FREE : 0.925
REMARK   3
REMARK   3  X-RAY WEIGHT : 6.15
REMARK   3
REMARK   3  GEOMETRY FUNCTION.                                                  
REMARK   3   RESTRAINT LIBRARIES.                                               
REMARK   3    NUMBER OF LIBRARIES USED :  10                                    
REMARK   3    LIBRARY  1 : protgeo_eh99.dat (V1.6.4.17) 20191001  STANDARD      
REMARK   3                 AMINO ACID DICTIONARY. BONDS AND ANGLES FROM         
REMARK   3                 ENGH AND HUBER EH99. OTHER VALUES BASED ON           
REMARK   3                 PREVIOUS TNT OR TAKEN FROM CCP4. INCLUDES            
REMARK   3                 HYDROGEN ATOMS.                                      
REMARK   3    LIBRARY  2 : exoticaa.dat (V1.3.4.15) 20200327  COLLECTION        
REMARK   3                 OF NON-STANDARD AMINO ACIDS, MAINLY EH91             
REMARK   3                 WITHOUT IDEAL DISTANCE INFO                          
REMARK   3    LIBRARY  3 : nuclgeo.dat (V1.13.4.8) 20190909                     
REMARK   3    LIBRARY  4 : bcorrel.dat (V1.15.10.2) 20190616                    
REMARK   3    LIBRARY  5 : contact.dat (V1.15.12.10) 20191121                   
REMARK   3    LIBRARY  6 : idealdist_contact.dat (V1.3.4.12) 20191001           
REMARK   3                 IDEAL-DISTANCE CONTACT TERM DATA AS USED IN          
REMARK   3                 PROLSQ. VALUES USED HERE ARE BASED ON DATA           
REMARK   3                 HARVESTING OF PDB AS OF 20190109.                    
REMARK   3    LIBRARY  7 : restraints for LIG (unknown) from cif                
REMARK   3                 dictionary ASAP-0016806-001.cif; generated by        
REMARK   3                 GRADE 1.2.20 (Dec 01 2020) from SMILES               
REMARK   3                 NCc1cccc(NC(=O)c2cc(Cl)cc(NC(=O)OCc3ccccc3)c2)c1     
REMARK   3                 using MOGUL 1.8.5(274361), CSD as541be, with         
REMARK   3                 quantum mechanics RM1                                
REMARK   3    LIBRARY  8 : restraints for DMS (DIMETHYL SULFOXIDE) from         
REMARK   3                 cif dictionary DMS.cif; buster common-compounds      
REMARK   3                 v 2.0 (19 Dec 2011)                                  
REMARK   3    LIBRARY  9 : restraints for SO4 (SULFATE ION) from cif            
REMARK   3                 dictionary SO4.cif; buster common-compounds v        
REMARK   3                 2.0 (19 Dec 2011)                                    
REMARK   3    LIBRARY 10 : assume.dat (V1.9.4.2) 20180705                       
REMARK   3                                                                      
REMARK   3   NUMBER OF GEOMETRIC FUNCTION TERMS DEFINED : 15                    
REMARK   3   TERM                          COUNT    WEIGHT   FUNCTION.          
REMARK   3    BOND LENGTHS              :   1584 ;   2.00 ;  HARMONIC           
REMARK   3    BOND ANGLES               :   2155 ;   2.00 ;  HARMONIC           
REMARK   3    TORSION ANGLES            :    539 ;   2.00 ;  SINUSOIDAL         
REMARK   3    TRIGONAL CARBON PLANES    :   NULL ;   NULL ;  NULL               
REMARK   3    GENERAL PLANES            :    297 ;   5.00 ;  HARMONIC           
REMARK   3    ISOTROPIC THERMAL FACTORS :   1584 ;  10.00 ;  HARMONIC           
REMARK   3    BAD NON-BONDED CONTACTS   :   NULL ;   NULL ;  NULL               
REMARK   3    IMPROPER TORSIONS         :   NULL ;   NULL ;  NULL               
REMARK   3    PSEUDOROTATION ANGLES     :   NULL ;   NULL ;  NULL               
REMARK   3    CHIRAL IMPROPER TORSION   :    196 ;   5.00 ;  SEMIHARMONIC       
REMARK   3    SUM OF OCCUPANCIES        :   NULL ;   NULL ;  NULL               
REMARK   3    UTILITY DISTANCES         :   NULL ;   NULL ;  NULL               
REMARK   3    UTILITY ANGLES            :   NULL ;   NULL ;  NULL               
REMARK   3    UTILITY TORSION           :   NULL ;   NULL ;  NULL               
REMARK   3    IDEAL-DIST CONTACT TERM   :   1203 ;   4.00 ;  SEMIHARMONIC       
REMARK   3                                                                      
REMARK   3   RMS DEVIATIONS FROM IDEAL VALUES.                                  
REMARK   3   BOND LENGTHS                       (A) : 0.008                     
REMARK   3   BOND ANGLES                  (DEGREES) : 0.96                      
REMARK   3   PEPTIDE OMEGA TORSION ANGLES (DEGREES) : 3.37                      
REMARK   3   OTHER TORSION ANGLES         (DEGREES) : 16.83                     
REMARK   3                                                                      
REMARK   3   SIMILARITY.                                                        
REMARK   3    NCS.                                                              
REMARK   3     NCS METHOD: NONE                                                 
REMARK   3    TARGET RESTRAINTS.                                                
REMARK   3     TARGET REPRESENTATION : NONE                                     
REMARK   3     TARGET STRUCTURE : NULL                                          
REMARK   3                                                                      
REMARK   3  TLS DETAILS.                                                        
REMARK   3   NUMBER OF TLS GROUPS  :            2                               
REMARK   3                                                                      
REMARK   3   TLS GROUP :            1                                           
REMARK   3    SET : { A|* }                                                     
REMARK   3    ORIGIN FOR THE GROUP (A):  -13.9095   -1.7374  -19.4746           
REMARK   3    T TENSOR                                                          
REMARK   3     T11:   -0.1233 T22:   -0.1579                                    
REMARK   3     T33:   -0.1646 T12:    0.1697                                    
REMARK   3     T13:    0.0869 T23:    0.0951                                    
REMARK   3    L TENSOR                                                          
REMARK   3     L11:    4.1609 L22:    3.6188                                    
REMARK   3     L33:    5.4974 L12:   -2.1359                                    
REMARK   3     L13:    0.3193 L23:    0.9169                                    
REMARK   3    S TENSOR                                                          
REMARK   3     S11:    0.5303 S12:    0.4042 S13:    0.2385                     
REMARK   3     S21:   -0.4472 S22:   -0.4137 S23:   -0.2427                     
REMARK   3     S31:    0.1835 S32:    0.4290 S33:   -0.1166                     
REMARK   3                                                                      
REMARK   3   TLS GROUP :            2                                           
REMARK   3    SET : { B|* }                                                     
REMARK   3    ORIGIN FOR THE GROUP (A):  -18.3787    0.9891  -15.8710           
REMARK   3    T TENSOR                                                          
REMARK   3     T11:   -0.0111 T22:   -0.0201                                    
REMARK   3     T33:    0.0185 T12:    0.1623                                    
REMARK   3     T13:    0.0366 T23:    0.0277                                    
REMARK   3    L TENSOR                                                          
REMARK   3     L11:    1.3006 L22:    2.1599                                    
REMARK   3     L33:    3.1525 L12:   -1.5554                                    
REMARK   3     L13:    0.4495 L23:    0.1240                                    
REMARK   3    S TENSOR                                                          
REMARK   3     S11:    0.3777 S12:    0.1677 S13:    0.2236                     
REMARK   3     S21:   -0.1522 S22:   -0.2909 S23:   -0.0307                     
REMARK   3     S31:    0.1162 S32:    0.1980 S33:   -0.0868                     
REMARK   3                                                                      
REMARK   3  REFINEMENT NOTES.                                                   
REMARK   3   NUMBER OF REFINEMENT NOTES :   1                                   
REMARK   3   NOTE   1 : IDEAL-DIST CONTACT TERM CONTACT SETUP. ALL ATOMS        
REMARK   3               HAVE CCP4 ATOM TYPE FROM LIBRARY                       
REMARK   3
REMARK   3  OTHER REFINEMENT REMARKS: NULL
REMARK   3
REMARK 290                                                            
REMARK 290 CRYSTALLOGRAPHIC SYMMETRY                                  
REMARK 290 SYMMETRY OPERATORS FOR SPACE GROUP: P 43 2 2               
REMARK 290                                                            
REMARK 290      SYMOP   SYMMETRY                                      
REMARK 290     NNNMMM   OPERATOR                                      
REMARK 290       1555   X,Y,Z                                         
REMARK 290       2555   -X,-Y,1/2+Z                                   
REMARK 290       3555   -Y,X,3/4+Z                                    
REMARK 290       4555   Y,-X,1/4+Z                                    
REMARK 290       5555   -X,Y,-Z                                       
REMARK 290       6555   X,-Y,1/2-Z                                    
REMARK 290       7555   Y,X,1/4-Z                                     
REMARK 290       8555   -Y,-X,3/4-Z                                   
REMARK 290                                                            
REMARK 290     WHERE NNN -> OPERATOR NUMBER                           
REMARK 290           MMM -> TRANSLATION VECTOR                        
REMARK 290                                                            
REMARK 290 CRYSTALLOGRAPHIC SYMMETRY TRANSFORMATIONS                  
REMARK 290 THE FOLLOWING TRANSFORMATIONS OPERATE ON THE ATOM/HETATM   
REMARK 290 RECORDS IN THIS ENTRY TO PRODUCE CRYSTALLOGRAPHICALLY      
REMARK 290 RELATED MOLECULES.                                         
REMARK 290   SMTRY1   1  1.000000  0.000000  0.000000        0.00000
REMARK 290   SMTRY2   1  0.000000  1.000000  0.000000        0.00000
REMARK 290   SMTRY3   1  0.000000  0.000000  1.000000        0.00000
REMARK 290   SMTRY1   2 -1.000000  0.000000  0.000000        0.00000
REMARK 290   SMTRY2   2  0.000000 -1.000000  0.000000        0.00000
REMARK 290   SMTRY3   2  0.000000  0.000000  1.000000      108.72350
REMARK 290   SMTRY1   3  0.000000 -1.000000  0.000000        0.00000
REMARK 290   SMTRY2   3  1.000000  0.000000  0.000000        0.00000
REMARK 290   SMTRY3   3  0.000000  0.000000  1.000000      163.08525
REMARK 290   SMTRY1   4  0.000000  1.000000  0.000000        0.00000
REMARK 290   SMTRY2   4 -1.000000  0.000000  0.000000        0.00000
REMARK 290   SMTRY3   4  0.000000  0.000000  1.000000       54.36175
REMARK 290   SMTRY1   5 -1.000000  0.000000  0.000000        0.00000
REMARK 290   SMTRY2   5  0.000000  1.000000  0.000000        0.00000
REMARK 290   SMTRY3   5  0.000000  0.000000 -1.000000        0.00000
REMARK 290   SMTRY1   6  1.000000  0.000000  0.000000        0.00000
REMARK 290   SMTRY2   6  0.000000 -1.000000  0.000000        0.00000
REMARK 290   SMTRY3   6  0.000000  0.000000 -1.000000      108.72350
REMARK 290   SMTRY1   7  0.000000  1.000000  0.000000        0.00000
REMARK 290   SMTRY2   7  1.000000  0.000000  0.000000        0.00000
REMARK 290   SMTRY3   7  0.000000  0.000000 -1.000000       54.36175
REMARK 290   SMTRY1   8  0.000000 -1.000000  0.000000        0.00000
REMARK 290   SMTRY2   8 -1.000000  0.000000  0.000000        0.00000
REMARK 290   SMTRY3   8  0.000000  0.000000 -1.000000      163.08525
REMARK 290                                                            
REMARK 290 REMARK: NULL                                               
CRYST1   42.685   42.685  217.447  90.00  90.00  90.00 P 43 2 2       


$$$$
XX01ZVNS2B-x3021_ASAP-0017670
  PyMOL3.0          3D                             0

 30 32  0  0  0  0  0  0  0  0999 V2000
   -7.8000    2.4200   -8.7970 N   0  0  0  0  0  0  0  0  0  0  0  0
   -9.0410    2.8660   -8.1590 C   0  0  0  0  0  0  0  0  0  0  0  0
   -7.2800    6.3710  -14.2990 O   0  0  0  0  0  0  0  0  0  0  0  0
  -11.3920    4.7450  -18.7100 Cl  0  0  0  0  0  0  0  0  0  0  0  0
   -9.9940    3.2770   -9.2590 C   0  0  0  0  0  0  0  0  0  0  0  0
   -9.1220    5.1490  -13.7720 N   0  0  0  0  0  0  0  0  0  0  0  0
   -6.6820    5.3770  -21.3840 O   0  0  0  0  0  0  0  0  0  0  0  0
   -9.4430    4.3770  -10.1370 C   0  0  0  0  0  0  0  0  0  0  0  0
   -6.3150    5.2900  -19.1180 N   0  0  0  0  0  0  0  0  0  0  0  0
   -5.3220    6.8540  -20.3130 O   0  0  0  0  0  0  0  0  0  0  0  0
   -9.1130    5.6140   -9.5990 C   0  0  0  0  0  0  0  0  0  0  0  0
   -8.8140    6.6880  -10.4230 C   0  0  0  0  0  0  0  0  0  0  0  0
   -8.8290    6.5390  -11.8000 C   0  0  0  0  0  0  0  0  0  0  0  0
   -9.1160    5.2980  -12.3560 C   0  0  0  0  0  0  0  0  0  0  0  0
   -8.2290    5.6750  -14.6480 C   0  0  0  0  0  0  0  0  0  0  0  0
   -8.4460    5.3620  -16.0940 C   0  0  0  0  0  0  0  0  0  0  0  0
   -9.6940    5.0890  -16.6430 C   0  0  0  0  0  0  0  0  0  0  0  0
   -9.8130    4.9770  -18.0150 C   0  0  0  0  0  0  0  0  0  0  0  0
   -8.7260    5.0870  -18.8570 C   0  0  0  0  0  0  0  0  0  0  0  0
   -7.4720    5.3160  -18.3030 C   0  0  0  0  0  0  0  0  0  0  0  0
   -6.1790    5.8070  -20.3640 C   0  0  0  0  0  0  0  0  0  0  0  0
   -4.9670    7.4770  -21.5840 C   0  0  0  0  0  0  0  0  0  0  0  0
   -3.8950    8.5020  -21.3400 C   0  0  0  0  0  0  0  0  0  0  0  0
   -3.1700    8.5010  -20.1550 C   0  0  0  0  0  0  0  0  0  0  0  0
   -2.1880    9.4500  -19.9240 C   0  0  0  0  0  0  0  0  0  0  0  0
   -1.9200   10.4150  -20.8700 C   0  0  0  0  0  0  0  0  0  0  0  0
   -2.6290   10.4280  -22.0530 C   0  0  0  0  0  0  0  0  0  0  0  0
   -3.6110    9.4770  -22.2870 C   0  0  0  0  0  0  0  0  0  0  0  0
   -7.3370    5.4680  -16.9280 C   0  0  0  0  0  0  0  0  0  0  0  0
   -9.4070    4.2220  -11.5200 C   0  0  0  0  0  0  0  0  0  0  0  0
  1  2  1  0  0  0  0
  2  5  1  0  0  0  0
  6 14  1  0  0  0  0
  7 21  2  0  0  0  0
  5  8  1  0  0  0  0
  9 20  1  0  0  0  0
 10 22  1  0  0  0  0
  8 11  4  0  0  0  0
 11 12  4  0  0  0  0
 12 13  4  0  0  0  0
 13 14  4  0  0  0  0
 14 30  4  0  0  0  0
  3 15  2  0  0  0  0
  6 15  1  0  0  0  0
 15 16  1  0  0  0  0
 16 17  4  0  0  0  0
  4 18  1  0  0  0  0
 17 18  4  0  0  0  0
 18 19  4  0  0  0  0
 19 20  4  0  0  0  0
 20 29  4  0  0  0  0
  9 21  1  0  0  0  0
 10 21  1  0  0  0  0
 22 23  1  0  0  0  0
 23 24  4  0  0  0  0
 23 28  4  0  0  0  0
 24 25  4  0  0  0  0
 25 26  4  0  0  0  0
 26 27  4  0  0  0  0
 27 28  4  0  0  0  0
 16 29  4  0  0  0  0
  8 30  4  0  0  0  0
M  END
>  <pdb_header>
REMARK --------------------- added by autoBUSTER ---------------------------------START
REMARK run at   = Mon Mar 18 17:54:02 GMT 2024
REMARK     in   = /dls/labxchem/data/lb32627/lb32627-65/processing/analysis/model_building/XX01ZVNS2B-x3021
REMARK     user = kyf22269
REMARK     cmd  = \
REMARK            /dls_sw/apps/GPhL/BUSTER/20211020/autoBUSTER/bin/linux64/refine \
REMARK            -p \
REMARK            /dls/labxchem/data/lb32627/lb32627-65/processing/analysis/model_building/XX01ZVNS2B-x3021/cootOut/Refine_4/in.pdb \
REMARK            -m \
REMARK            /dls/labxchem/data/lb32627/lb32627-65/processing/analysis/model_building/XX01ZVNS2B-x3021/XX01ZVNS2B-x3021.free.mtz \
REMARK            -l \
REMARK            /dls/labxchem/data/lb32627/lb32627-65/processing/analysis/model_building/XX01ZVNS2B-x3021/ASAP-0017670-001.cif \
REMARK            -autoncs -M TLSbasic -d Refine_4
REMARK Files used:
REMARK   PDB              = Refine_4/pdbchk.pdb
REMARK   MTZ              = /dls/labxchem/data/lb32627/lb32627-65/processing/analysis/model_building/XX01ZVNS2B-x3021/XX01ZVNS2B-x3021.free.mtz
REMARK output written to subdirectory = Refine_4
REMARK best refinement for F,SIGF with R/Rfree 0.2388/0.2757
REMARK header records are copied from input PDB file (apart from REMARK 3!)
REMARK --------------------- added by autoBUSTER -----------------------------------END
REMARK --------------------- added by autoBUSTER -------------------------------
REMARK run at   = Tue Mar  5 16:44:49 GMT 2024                                  
REMARK     in   = /dls/labxchem/data/lb32627/lb32627-65/processing/analysis/mode
REMARK     user = kyf22269                                                      
REMARK     cmd  = \                                                             
REMARK            /dls_sw/apps/GPhL/BUSTER/20211020/autoBUSTER/bin/linux64/refin
REMARK            -p \                                                          
REMARK            /dls/labxchem/data/lb32627/lb32627-65/processing/analysis/mode
REMARK            -m \                                                          
REMARK            /dls/labxchem/data/lb32627/lb32627-65/processing/analysis/mode
REMARK            -l \                                                          
REMARK            /dls/labxchem/data/lb32627/lb32627-65/processing/analysis/mode
REMARK            -autoncs -M TLSbasic -d Refine_3                              
REMARK Files used:                                                              
REMARK   PDB              = Refine_3/pdbchk.pdb                                 
REMARK   MTZ              = /dls/labxchem/data/lb32627/lb32627-65/processing/ana
REMARK output written to subdirectory = Refine_3                                
REMARK best refinement for F,SIGF with R/Rfree 0.2388/0.2776                    
REMARK header records are copied from input PDB file (apart from REMARK 3!)     
REMARK --------------------- added by autoBUSTER -------------------------------
REMARK --------------------- added by autoBUSTER -------------------------------
REMARK run at   = Tue Mar  5 13:49:20 GMT 2024                                  
REMARK     in   = /dls/labxchem/data/lb32627/lb32627-65/processing/analysis/mode
REMARK     user = kyf22269                                                      
REMARK     cmd  = \                                                             
REMARK            /dls_sw/apps/GPhL/BUSTER/20211020/autoBUSTER/bin/linux64/refin
REMARK            -p \                                                          
REMARK            /dls/labxchem/data/lb32627/lb32627-65/processing/analysis/mode
REMARK            -m \                                                          
REMARK            /dls/labxchem/data/lb32627/lb32627-65/processing/analysis/mode
REMARK            -l \                                                          
REMARK            /dls/labxchem/data/lb32627/lb32627-65/processing/analysis/mode
REMARK            -autoncs -M TLSbasic -d Refine_2                              
REMARK Files used:                                                              
REMARK   PDB              = Refine_2/pdbchk.pdb                                 
REMARK   MTZ              = /dls/labxchem/data/lb32627/lb32627-65/processing/ana
REMARK output written to subdirectory = Refine_2                                
REMARK best refinement for F,SIGF with R/Rfree 0.2385/0.2702                    
REMARK header records are copied from input PDB file (apart from REMARK 3!)     
REMARK --------------------- added by autoBUSTER -------------------------------
REMARK --------------------- added by autoBUSTER -------------------------------
REMARK run at   = Thu Feb 29 11:53:11 GMT 2024                                  
REMARK     in   = /dls/labxchem/data/lb32627/lb32627-65/processing/analysis/mode
REMARK     user = kyf22269                                                      
REMARK     cmd  = \                                                             
REMARK            /dls_sw/apps/GPhL/BUSTER/20211020/autoBUSTER/bin/linux64/refin
REMARK            -p \                                                          
REMARK            /dls/labxchem/data/lb32627/lb32627-65/processing/analysis/mode
REMARK            -m \                                                          
REMARK            /dls/labxchem/data/lb32627/lb32627-65/processing/analysis/mode
REMARK            -l \                                                          
REMARK            /dls/labxchem/data/lb32627/lb32627-65/processing/analysis/mode
REMARK            -autoncs -M TLSbasic StopOnGellySanityCheckError=no -d \      
REMARK            Refine_1                                                      
REMARK Files used:                                                              
REMARK   PDB              = Refine_1/pdbchk.pdb                                 
REMARK   MTZ              = /dls/labxchem/data/lb32627/lb32627-65/processing/ana
REMARK output written to subdirectory = Refine_1                                
REMARK best refinement for F,SIGF with R/Rfree 0.2453/0.2835                    
REMARK header records are copied from input PDB file (apart from REMARK 3!)     
REMARK --------------------- added by autoBUSTER -------------------------------
HEADER    ----                                    23-FEB-23                     
TITLE     ---                                                                   
COMPND    ---                                                                   
EXPDTA    X-RAY DIFFRACTION
REMARK   2                                                            
REMARK   2 RESOLUTION.    1.75 ANGSTROMS.
REMARK   3
REMARK   3 REFINEMENT.
REMARK   3   PROGRAM     : BUSTER 2.10.4 (20-OCT-2021)
REMARK   3   AUTHORS     : BRICOGNE,BLANC,BRANDL,FLENSBURG,KELLER,
REMARK   3               : PACIOREK,ROVERSI,SHARFF,SMART,VONRHEIN,WOMACK;
REMARK   3               : MATTHEWS,TEN EYCK,TRONRUD
REMARK   3
REMARK   3  DATA USED IN REFINEMENT.
REMARK   3   RESOLUTION RANGE HIGH (ANGSTROMS) : 1.750
REMARK   3   RESOLUTION RANGE LOW  (ANGSTROMS) : 39.77
REMARK   3   DATA CUTOFF            (SIGMA(F)) : 0.000
REMARK   3   COMPLETENESS FOR RANGE        (%) : 99.0
REMARK   3   NUMBER OF REFLECTIONS             : 21330
REMARK   3
REMARK   3  FIT TO DATA USED IN REFINEMENT.
REMARK   3   CROSS-VALIDATION METHOD          : THROUGHOUT
REMARK   3   FREE R VALUE TEST SET SELECTION  : RANDOM
REMARK   3   R VALUE     (WORKING + TEST SET) : 0.2406
REMARK   3   R VALUE            (WORKING SET) : 0.2388
REMARK   3   FREE R VALUE                     : 0.2757
REMARK   3   FREE R VALUE TEST SET SIZE   (%) : 5.040
REMARK   3   FREE R VALUE TEST SET COUNT      : 1076
REMARK   3   ESTIMATED ERROR OF FREE R VALUE  : NULL
REMARK   3
REMARK   3  FIT IN THE HIGHEST RESOLUTION BIN.
REMARK   3   TOTAL NUMBER OF BINS USED           : 51
REMARK   3   BIN RESOLUTION RANGE HIGH       (A) : 1.75
REMARK   3   BIN RESOLUTION RANGE LOW        (A) : 1.76
REMARK   3   BIN COMPLETENESS (WORKING+TEST) (%) : 89.68
REMARK   3   REFLECTIONS IN BIN   (WORKING+TEST) : 427
REMARK   3   BIN R VALUE          (WORKING+TEST) : 0.4268
REMARK   3   REFLECTIONS IN BIN    (WORKING SET) : 402
REMARK   3   BIN R VALUE           (WORKING SET) : 0.4210
REMARK   3   BIN FREE R VALUE                    : 0.5209
REMARK   3   BIN FREE R VALUE TEST SET SIZE  (%) : 5.85
REMARK   3   BIN FREE R VALUE TEST SET COUNT     : 25
REMARK   3   ESTIMATED ERROR OF BIN FREE R VALUE : NULL
REMARK   3
REMARK   3  NUMBER OF NON-HYDROGEN ATOMS USED IN REFINEMENT.
REMARK   3   PROTEIN ATOMS            : 1476
REMARK   3   NUCLEIC ACID ATOMS       : 0
REMARK   3   HETEROGEN ATOMS          : 53
REMARK   3   SOLVENT ATOMS            : 90
REMARK   3
REMARK   3  B VALUES.
REMARK   3   FROM WILSON PLOT           (A**2) : 35.94
REMARK   3   MEAN B VALUE      (OVERALL, A**2) : 52.57
REMARK   3   OVERALL ANISOTROPIC B VALUE.
REMARK   3    B11 (A**2) : -2.50600
REMARK   3    B22 (A**2) : -2.50600
REMARK   3    B33 (A**2) : 5.01190
REMARK   3    B12 (A**2) : 0.00000
REMARK   3    B13 (A**2) : 0.00000
REMARK   3    B23 (A**2) : 0.00000
REMARK   3
REMARK   3  ESTIMATED COORDINATE ERROR.
REMARK   3   ESD FROM LUZZATI PLOT                    (A) : 0.33
REMARK   3   DPI (BLOW EQ-10) BASED ON R VALUE        (A) : 0.149
REMARK   3   DPI (BLOW EQ-9) BASED ON FREE R VALUE    (A) : 0.139
REMARK   3   DPI (CRUICKSHANK) BASED ON R VALUE       (A) : 0.140
REMARK   3   DPI (CRUICKSHANK) BASED ON FREE R VALUE  (A) : 0.134
REMARK   3
REMARK   3   REFERENCES: BLOW, D. (2002) ACTA CRYST D58, 792-797
REMARK   3               CRUICKSHANK, D.W.J. (1999) ACTA CRYST D55, 583-601
REMARK   3
REMARK   3  CORRELATION COEFFICIENTS.
REMARK   3   CORRELATION COEFFICIENT FO-FC      : 0.951
REMARK   3   CORRELATION COEFFICIENT FO-FC FREE : 0.943
REMARK   3
REMARK   3  X-RAY WEIGHT : 5.67
REMARK   3
REMARK   3  GEOMETRY FUNCTION.                                                  
REMARK   3   RESTRAINT LIBRARIES.                                               
REMARK   3    NUMBER OF LIBRARIES USED :  10                                    
REMARK   3    LIBRARY  1 : protgeo_eh99.dat (V1.6.4.17) 20191001  STANDARD      
REMARK   3                 AMINO ACID DICTIONARY. BONDS AND ANGLES FROM         
REMARK   3                 ENGH AND HUBER EH99. OTHER VALUES BASED ON           
REMARK   3                 PREVIOUS TNT OR TAKEN FROM CCP4. INCLUDES            
REMARK   3                 HYDROGEN ATOMS.                                      
REMARK   3    LIBRARY  2 : exoticaa.dat (V1.3.4.15) 20200327  COLLECTION        
REMARK   3                 OF NON-STANDARD AMINO ACIDS, MAINLY EH91             
REMARK   3                 WITHOUT IDEAL DISTANCE INFO                          
REMARK   3    LIBRARY  3 : nuclgeo.dat (V1.13.4.8) 20190909                     
REMARK   3    LIBRARY  4 : bcorrel.dat (V1.15.10.2) 20190616                    
REMARK   3    LIBRARY  5 : contact.dat (V1.15.12.10) 20191121                   
REMARK   3    LIBRARY  6 : idealdist_contact.dat (V1.3.4.12) 20191001           
REMARK   3                 IDEAL-DISTANCE CONTACT TERM DATA AS USED IN          
REMARK   3                 PROLSQ. VALUES USED HERE ARE BASED ON DATA           
REMARK   3                 HARVESTING OF PDB AS OF 20190109.                    
REMARK   3    LIBRARY  7 : restraints for LIG (unknown) from cif                
REMARK   3                 dictionary ASAP-0017670-001.cif; generated by        
REMARK   3                 GRADE 1.2.20 (Dec 01 2020) from SMILES               
REMARK   3                 NCCc1cccc(NC(=O)c2cc(Cl)cc(NC(=O)OCc3ccccc3)c2)c     
REMARK   3                 1 using MOGUL 1.8.5(274361), CSD as541be, with       
REMARK   3                 quantum mechanics RM1                                
REMARK   3    LIBRARY  8 : restraints for DMS (DIMETHYL SULFOXIDE) from         
REMARK   3                 cif dictionary DMS.cif; buster common-compounds      
REMARK   3                 v 2.0 (19 Dec 2011)                                  
REMARK   3    LIBRARY  9 : restraints for SO4 (SULFATE ION) from cif            
REMARK   3                 dictionary SO4.cif; buster common-compounds v        
REMARK   3                 2.0 (19 Dec 2011)                                    
REMARK   3    LIBRARY 10 : assume.dat (V1.9.4.2) 20180705                       
REMARK   3                                                                      
REMARK   3   NUMBER OF GEOMETRIC FUNCTION TERMS DEFINED : 15                    
REMARK   3   TERM                          COUNT    WEIGHT   FUNCTION.          
REMARK   3    BOND LENGTHS              :   1593 ;   2.00 ;  HARMONIC           
REMARK   3    BOND ANGLES               :   2168 ;   2.00 ;  HARMONIC           
REMARK   3    TORSION ANGLES            :    540 ;   2.00 ;  SINUSOIDAL         
REMARK   3    TRIGONAL CARBON PLANES    :   NULL ;   NULL ;  NULL               
REMARK   3    GENERAL PLANES            :    296 ;   5.00 ;  HARMONIC           
REMARK   3    ISOTROPIC THERMAL FACTORS :   1593 ;  10.00 ;  HARMONIC           
REMARK   3    BAD NON-BONDED CONTACTS   :   NULL ;   NULL ;  NULL               
REMARK   3    IMPROPER TORSIONS         :   NULL ;   NULL ;  NULL               
REMARK   3    PSEUDOROTATION ANGLES     :   NULL ;   NULL ;  NULL               
REMARK   3    CHIRAL IMPROPER TORSION   :    196 ;   5.00 ;  SEMIHARMONIC       
REMARK   3    SUM OF OCCUPANCIES        :   NULL ;   NULL ;  NULL               
REMARK   3    UTILITY DISTANCES         :   NULL ;   NULL ;  NULL               
REMARK   3    UTILITY ANGLES            :   NULL ;   NULL ;  NULL               
REMARK   3    UTILITY TORSION           :   NULL ;   NULL ;  NULL               
REMARK   3    IDEAL-DIST CONTACT TERM   :   1251 ;   4.00 ;  SEMIHARMONIC       
REMARK   3                                                                      
REMARK   3   RMS DEVIATIONS FROM IDEAL VALUES.                                  
REMARK   3   BOND LENGTHS                       (A) : 0.008                     
REMARK   3   BOND ANGLES                  (DEGREES) : 0.95                      
REMARK   3   PEPTIDE OMEGA TORSION ANGLES (DEGREES) : 3.52                      
REMARK   3   OTHER TORSION ANGLES         (DEGREES) : 15.97                     
REMARK   3                                                                      
REMARK   3   SIMILARITY.                                                        
REMARK   3    NCS.                                                              
REMARK   3     NCS METHOD: NONE                                                 
REMARK   3    TARGET RESTRAINTS.                                                
REMARK   3     TARGET REPRESENTATION : NONE                                     
REMARK   3     TARGET STRUCTURE : NULL                                          
REMARK   3                                                                      
REMARK   3  TLS DETAILS.                                                        
REMARK   3   NUMBER OF TLS GROUPS  :            2                               
REMARK   3                                                                      
REMARK   3   TLS GROUP :            1                                           
REMARK   3    SET : { A|* }                                                     
REMARK   3    ORIGIN FOR THE GROUP (A):  -14.0735   -1.3278  -19.5586           
REMARK   3    T TENSOR                                                          
REMARK   3     T11:    0.0451 T22:    0.0563                                    
REMARK   3     T33:   -0.3027 T12:    0.2298                                    
REMARK   3     T13:    0.0711 T23:    0.0661                                    
REMARK   3    L TENSOR                                                          
REMARK   3     L11:    3.5983 L22:    3.2859                                    
REMARK   3     L33:    4.7890 L12:   -2.1247                                    
REMARK   3     L13:    0.8719 L23:    0.7526                                    
REMARK   3    S TENSOR                                                          
REMARK   3     S11:    0.5538 S12:    0.4884 S13:    0.2253                     
REMARK   3     S21:   -0.4251 S22:   -0.4233 S23:   -0.2051                     
REMARK   3     S31:    0.1630 S32:    0.5500 S33:   -0.1305                     
REMARK   3                                                                      
REMARK   3   TLS GROUP :            2                                           
REMARK   3    SET : { B|* }                                                     
REMARK   3    ORIGIN FOR THE GROUP (A):  -18.4997    1.4606  -15.9062           
REMARK   3    T TENSOR                                                          
REMARK   3     T11:    0.1351 T22:    0.0631                                    
REMARK   3     T33:   -0.1190 T12:    0.1674                                    
REMARK   3     T13:    0.0121 T23:    0.0126                                    
REMARK   3    L TENSOR                                                          
REMARK   3     L11:    1.0698 L22:    0.9528                                    
REMARK   3     L33:    3.3683 L12:   -1.4110                                    
REMARK   3     L13:    0.6605 L23:    0.3544                                    
REMARK   3    S TENSOR                                                          
REMARK   3     S11:    0.4196 S12:    0.1702 S13:    0.1499                     
REMARK   3     S21:   -0.1088 S22:   -0.2856 S23:    0.0697                     
REMARK   3     S31:    0.1712 S32:    0.2087 S33:   -0.1339                     
REMARK   3                                                                      
REMARK   3  REFINEMENT NOTES.                                                   
REMARK   3   NUMBER OF REFINEMENT NOTES :   1                                   
REMARK   3   NOTE   1 : IDEAL-DIST CONTACT TERM CONTACT SETUP. ALL ATOMS        
REMARK   3               HAVE CCP4 ATOM TYPE FROM LIBRARY                       
REMARK   3
REMARK   3  OTHER REFINEMENT REMARKS: NULL
REMARK   3
REMARK 290                                                            
REMARK 290 CRYSTALLOGRAPHIC SYMMETRY                                  
REMARK 290 SYMMETRY OPERATORS FOR SPACE GROUP: P 43 2 2               
REMARK 290                                                            
REMARK 290      SYMOP   SYMMETRY                                      
REMARK 290     NNNMMM   OPERATOR                                      
REMARK 290       1555   X,Y,Z                                         
REMARK 290       2555   -X,-Y,1/2+Z                                   
REMARK 290       3555   -Y,X,3/4+Z                                    
REMARK 290       4555   Y,-X,1/4+Z                                    
REMARK 290       5555   -X,Y,-Z                                       
REMARK 290       6555   X,-Y,1/2-Z                                    
REMARK 290       7555   Y,X,1/4-Z                                     
REMARK 290       8555   -Y,-X,3/4-Z                                   
REMARK 290                                                            
REMARK 290     WHERE NNN -> OPERATOR NUMBER                           
REMARK 290           MMM -> TRANSLATION VECTOR                        
REMARK 290                                                            
REMARK 290 CRYSTALLOGRAPHIC SYMMETRY TRANSFORMATIONS                  
REMARK 290 THE FOLLOWING TRANSFORMATIONS OPERATE ON THE ATOM/HETATM   
REMARK 290 RECORDS IN THIS ENTRY TO PRODUCE CRYSTALLOGRAPHICALLY      
REMARK 290 RELATED MOLECULES.                                         
REMARK 290   SMTRY1   1  1.000000  0.000000  0.000000        0.00000
REMARK 290   SMTRY2   1  0.000000  1.000000  0.000000        0.00000
REMARK 290   SMTRY3   1  0.000000  0.000000  1.000000        0.00000
REMARK 290   SMTRY1   2 -1.000000  0.000000  0.000000        0.00000
REMARK 290   SMTRY2   2  0.000000 -1.000000  0.000000        0.00000
REMARK 290   SMTRY3   2  0.000000  0.000000  1.000000      108.79500
REMARK 290   SMTRY1   3  0.000000 -1.000000  0.000000        0.00000
REMARK 290   SMTRY2   3  1.000000  0.000000  0.000000        0.00000
REMARK 290   SMTRY3   3  0.000000  0.000000  1.000000      163.19250
REMARK 290   SMTRY1   4  0.000000  1.000000  0.000000        0.00000
REMARK 290   SMTRY2   4 -1.000000  0.000000  0.000000        0.00000
REMARK 290   SMTRY3   4  0.000000  0.000000  1.000000       54.39750
REMARK 290   SMTRY1   5 -1.000000  0.000000  0.000000        0.00000
REMARK 290   SMTRY2   5  0.000000  1.000000  0.000000        0.00000
REMARK 290   SMTRY3   5  0.000000  0.000000 -1.000000        0.00000
REMARK 290   SMTRY1   6  1.000000  0.000000  0.000000        0.00000
REMARK 290   SMTRY2   6  0.000000 -1.000000  0.000000        0.00000
REMARK 290   SMTRY3   6  0.000000  0.000000 -1.000000      108.79500
REMARK 290   SMTRY1   7  0.000000  1.000000  0.000000        0.00000
REMARK 290   SMTRY2   7  1.000000  0.000000  0.000000        0.00000
REMARK 290   SMTRY3   7  0.000000  0.000000 -1.000000       54.39750
REMARK 290   SMTRY1   8  0.000000 -1.000000  0.000000        0.00000
REMARK 290   SMTRY2   8 -1.000000  0.000000  0.000000        0.00000
REMARK 290   SMTRY3   8  0.000000  0.000000 -1.000000      163.19250
REMARK 290                                                            
REMARK 290 REMARK: NULL                                               
CRYST1   42.730   42.730  217.590  90.00  90.00  90.00 P 43 2 2       


$$$$
XX01ZVNS2B-x3024_ASAP-0017692
  PyMOL3.0          3D                             0

 30 32  0  0  0  0  0  0  0  0999 V2000
   -8.6620    3.3720   -6.2020 N   0  0  0  0  0  0  0  0  0  0  0  0
   -9.0890    3.4560   -7.5990 C   0  0  0  0  0  0  0  0  0  0  0  0
   -7.3330    6.6210  -14.2690 O   0  0  0  0  0  0  0  0  0  0  0  0
  -11.0590    4.4680  -18.8200 Cl  0  0  0  0  0  0  0  0  0  0  0  0
   -8.7830    4.8500   -8.1940 C   0  0  0  0  0  0  0  0  0  0  0  0
   -8.8970    5.0080  -13.9160 N   0  0  0  0  0  0  0  0  0  0  0  0
   -4.4210    5.6920  -17.6540 O   0  0  0  0  0  0  0  0  0  0  0  0
   -8.8290    4.8910   -9.7040 C   0  0  0  0  0  0  0  0  0  0  0  0
   -6.1310    5.7230  -19.1910 N   0  0  0  0  0  0  0  0  0  0  0  0
   -4.0450    5.8340  -19.8860 O   0  0  0  0  0  0  0  0  0  0  0  0
   -8.7390    6.0980  -10.3800 C   0  0  0  0  0  0  0  0  0  0  0  0
   -8.7740    6.1480  -11.7610 C   0  0  0  0  0  0  0  0  0  0  0  0
   -8.8960    4.9780  -12.5020 C   0  0  0  0  0  0  0  0  0  0  0  0
   -8.1350    5.8000  -14.7080 C   0  0  0  0  0  0  0  0  0  0  0  0
   -8.2930    5.5940  -16.1800 C   0  0  0  0  0  0  0  0  0  0  0  0
   -9.4850    5.1520  -16.7420 C   0  0  0  0  0  0  0  0  0  0  0  0
   -9.5500    4.9590  -18.1070 C   0  0  0  0  0  0  0  0  0  0  0  0
   -8.4620    5.1660  -18.9280 C   0  0  0  0  0  0  0  0  0  0  0  0
   -7.2680    5.6000  -18.3630 C   0  0  0  0  0  0  0  0  0  0  0  0
   -4.8310    5.7040  -18.7980 C   0  0  0  0  0  0  0  0  0  0  0  0
   -2.6410    6.1150  -19.6360 C   0  0  0  0  0  0  0  0  0  0  0  0
   -2.4810    7.6010  -19.7700 C   0  0  0  0  0  0  0  0  0  0  0  0
   -1.3340    8.1490  -20.3180 C   0  0  0  0  0  0  0  0  0  0  0  0
   -1.2530    9.5070  -20.5680 C   0  0  0  0  0  0  0  0  0  0  0  0
   -2.3110   10.3330  -20.2690 C   0  0  0  0  0  0  0  0  0  0  0  0
   -3.4420    9.8090  -19.6970 C   0  0  0  0  0  0  0  0  0  0  0  0
   -3.5270    8.4520  -19.4440 C   0  0  0  0  0  0  0  0  0  0  0  0
   -7.1930    5.8330  -16.9950 C   0  0  0  0  0  0  0  0  0  0  0  0
   -8.9900    3.7660  -11.8330 C   0  0  0  0  0  0  0  0  0  0  0  0
   -8.9560    3.7290  -10.4510 C   0  0  0  0  0  0  0  0  0  0  0  0
  1  2  1  0  0  0  0
  2  5  1  0  0  0  0
  6 13  1  0  0  0  0
  7 20  2  0  0  0  0
  5  8  1  0  0  0  0
  9 19  1  0  0  0  0
 10 21  1  0  0  0  0
  8 11  4  0  0  0  0
 11 12  4  0  0  0  0
 12 13  4  0  0  0  0
 13 29  4  0  0  0  0
  3 14  2  0  0  0  0
  6 14  1  0  0  0  0
 14 15  1  0  0  0  0
 15 16  4  0  0  0  0
  4 17  1  0  0  0  0
 16 17  4  0  0  0  0
 17 18  4  0  0  0  0
 18 19  4  0  0  0  0
 19 28  4  0  0  0  0
  9 20  1  0  0  0  0
 10 20  1  0  0  0  0
 21 22  1  0  0  0  0
 22 23  4  0  0  0  0
 22 27  4  0  0  0  0
 23 24  4  0  0  0  0
 24 25  4  0  0  0  0
 25 26  4  0  0  0  0
 26 27  4  0  0  0  0
 15 28  4  0  0  0  0
 29 30  4  0  0  0  0
  8 30  4  0  0  0  0
M  END
>  <pdb_header>
REMARK --------------------- added by autoBUSTER ---------------------------------START
REMARK run at   = Mon Mar 18 18:06:16 GMT 2024
REMARK     in   = /dls/labxchem/data/lb32627/lb32627-65/processing/analysis/model_building/XX01ZVNS2B-x3024
REMARK     user = kyf22269
REMARK     cmd  = \
REMARK            /dls_sw/apps/GPhL/BUSTER/20211020/autoBUSTER/bin/linux64/refine \
REMARK            -p \
REMARK            /dls/labxchem/data/lb32627/lb32627-65/processing/analysis/model_building/XX01ZVNS2B-x3024/cootOut/Refine_5/in.pdb \
REMARK            -m \
REMARK            /dls/labxchem/data/lb32627/lb32627-65/processing/analysis/model_building/XX01ZVNS2B-x3024/XX01ZVNS2B-x3024.free.mtz \
REMARK            -l \
REMARK            /dls/labxchem/data/lb32627/lb32627-65/processing/analysis/model_building/XX01ZVNS2B-x3024/ASAP-0017692-001.cif \
REMARK            -autoncs -M TLSbasic -d Refine_5
REMARK Files used:
REMARK   PDB              = Refine_5/pdbchk.pdb
REMARK   MTZ              = /dls/labxchem/data/lb32627/lb32627-65/processing/analysis/model_building/XX01ZVNS2B-x3024/XX01ZVNS2B-x3024.free.mtz
REMARK output written to subdirectory = Refine_5
REMARK best refinement for F,SIGF with R/Rfree 0.2322/0.2462
REMARK header records are copied from input PDB file (apart from REMARK 3!)
REMARK --------------------- added by autoBUSTER -----------------------------------END
REMARK --------------------- added by autoBUSTER -------------------------------
REMARK run at   = Mon Mar 18 17:44:18 GMT 2024                                  
REMARK     in   = /dls/labxchem/data/lb32627/lb32627-65/processing/analysis/mode
REMARK     user = kyf22269                                                      
REMARK     cmd  = \                                                             
REMARK            /dls_sw/apps/GPhL/BUSTER/20211020/autoBUSTER/bin/linux64/refin
REMARK            -p \                                                          
REMARK            /dls/labxchem/data/lb32627/lb32627-65/processing/analysis/mode
REMARK            -m \                                                          
REMARK            /dls/labxchem/data/lb32627/lb32627-65/processing/analysis/mode
REMARK            -l \                                                          
REMARK            /dls/labxchem/data/lb32627/lb32627-65/processing/analysis/mode
REMARK            -autoncs -M TLSbasic -d Refine_4                              
REMARK Files used:                                                              
REMARK   PDB              = Refine_4/pdbchk.pdb                                 
REMARK   MTZ              = /dls/labxchem/data/lb32627/lb32627-65/processing/ana
REMARK output written to subdirectory = Refine_4                                
REMARK best refinement for F,SIGF with R/Rfree 0.2313/0.2473                    
REMARK header records are copied from input PDB file (apart from REMARK 3!)     
REMARK --------------------- added by autoBUSTER -------------------------------
REMARK --------------------- added by autoBUSTER -------------------------------
REMARK run at   = Tue Mar  5 17:00:13 GMT 2024                                  
REMARK     in   = /dls/labxchem/data/lb32627/lb32627-65/processing/analysis/mode
REMARK     user = kyf22269                                                      
REMARK     cmd  = \                                                             
REMARK            /dls_sw/apps/GPhL/BUSTER/20211020/autoBUSTER/bin/linux64/refin
REMARK            -p \                                                          
REMARK            /dls/labxchem/data/lb32627/lb32627-65/processing/analysis/mode
REMARK            -m \                                                          
REMARK            /dls/labxchem/data/lb32627/lb32627-65/processing/analysis/mode
REMARK            -l \                                                          
REMARK            /dls/labxchem/data/lb32627/lb32627-65/processing/analysis/mode
REMARK            -autoncs -M TLSbasic -d Refine_3                              
REMARK Files used:                                                              
REMARK   PDB              = Refine_3/pdbchk.pdb                                 
REMARK   MTZ              = /dls/labxchem/data/lb32627/lb32627-65/processing/ana
REMARK output written to subdirectory = Refine_3                                
REMARK best refinement for F,SIGF with R/Rfree 0.2316/0.2461                    
REMARK header records are copied from input PDB file (apart from REMARK 3!)     
REMARK --------------------- added by autoBUSTER -------------------------------
REMARK --------------------- added by autoBUSTER -------------------------------
REMARK run at   = Tue Mar  5 14:19:50 GMT 2024                                  
REMARK     in   = /dls/labxchem/data/lb32627/lb32627-65/processing/analysis/mode
REMARK     user = kyf22269                                                      
REMARK     cmd  = \                                                             
REMARK            /dls_sw/apps/GPhL/BUSTER/20211020/autoBUSTER/bin/linux64/refin
REMARK            -p \                                                          
REMARK            /dls/labxchem/data/lb32627/lb32627-65/processing/analysis/mode
REMARK            -m \                                                          
REMARK            /dls/labxchem/data/lb32627/lb32627-65/processing/analysis/mode
REMARK            -l \                                                          
REMARK            /dls/labxchem/data/lb32627/lb32627-65/processing/analysis/mode
REMARK            -autoncs -M TLSbasic -d Refine_2                              
REMARK Files used:                                                              
REMARK   PDB              = Refine_2/pdbchk.pdb                                 
REMARK   MTZ              = /dls/labxchem/data/lb32627/lb32627-65/processing/ana
REMARK output written to subdirectory = Refine_2                                
REMARK best refinement for F,SIGF with R/Rfree 0.2350/0.2492                    
REMARK header records are copied from input PDB file (apart from REMARK 3!)     
REMARK --------------------- added by autoBUSTER -------------------------------
REMARK --------------------- added by autoBUSTER -------------------------------
REMARK run at   = Thu Feb 29 11:53:24 GMT 2024                                  
REMARK     in   = /dls/labxchem/data/lb32627/lb32627-65/processing/analysis/mode
REMARK     user = kyf22269                                                      
REMARK     cmd  = \                                                             
REMARK            /dls_sw/apps/GPhL/BUSTER/20211020/autoBUSTER/bin/linux64/refin
REMARK            -p \                                                          
REMARK            /dls/labxchem/data/lb32627/lb32627-65/processing/analysis/mode
REMARK            -m \                                                          
REMARK            /dls/labxchem/data/lb32627/lb32627-65/processing/analysis/mode
REMARK            -l \                                                          
REMARK            /dls/labxchem/data/lb32627/lb32627-65/processing/analysis/mode
REMARK            -autoncs -M TLSbasic StopOnGellySanityCheckError=no -d \      
REMARK            Refine_1                                                      
REMARK Files used:                                                              
REMARK   PDB              = Refine_1/pdbchk.pdb                                 
REMARK   MTZ              = /dls/labxchem/data/lb32627/lb32627-65/processing/ana
REMARK output written to subdirectory = Refine_1                                
REMARK best refinement for F,SIGF with R/Rfree 0.2402/0.2497                    
REMARK header records are copied from input PDB file (apart from REMARK 3!)     
REMARK --------------------- added by autoBUSTER -------------------------------
HEADER    ----                                    23-FEB-23                     
TITLE     ---                                                                   
COMPND    ---                                                                   
EXPDTA    X-RAY DIFFRACTION
REMARK   2                                                            
REMARK   2 RESOLUTION.    1.55 ANGSTROMS.
REMARK   3
REMARK   3 REFINEMENT.
REMARK   3   PROGRAM     : BUSTER 2.10.4 (20-OCT-2021)
REMARK   3   AUTHORS     : BRICOGNE,BLANC,BRANDL,FLENSBURG,KELLER,
REMARK   3               : PACIOREK,ROVERSI,SHARFF,SMART,VONRHEIN,WOMACK;
REMARK   3               : MATTHEWS,TEN EYCK,TRONRUD
REMARK   3
REMARK   3  DATA USED IN REFINEMENT.
REMARK   3   RESOLUTION RANGE HIGH (ANGSTROMS) : 1.550
REMARK   3   RESOLUTION RANGE LOW  (ANGSTROMS) : 25.05
REMARK   3   DATA CUTOFF            (SIGMA(F)) : 0.000
REMARK   3   COMPLETENESS FOR RANGE        (%) : 87.5
REMARK   3   NUMBER OF REFLECTIONS             : 26288
REMARK   3
REMARK   3  FIT TO DATA USED IN REFINEMENT.
REMARK   3   CROSS-VALIDATION METHOD          : THROUGHOUT
REMARK   3   FREE R VALUE TEST SET SELECTION  : RANDOM
REMARK   3   R VALUE     (WORKING + TEST SET) : 0.2329
REMARK   3   R VALUE            (WORKING SET) : 0.2322
REMARK   3   FREE R VALUE                     : 0.2462
REMARK   3   FREE R VALUE TEST SET SIZE   (%) : 5.090
REMARK   3   FREE R VALUE TEST SET COUNT      : 1337
REMARK   3   ESTIMATED ERROR OF FREE R VALUE  : NULL
REMARK   3
REMARK   3  FIT IN THE HIGHEST RESOLUTION BIN.
REMARK   3   TOTAL NUMBER OF BINS USED           : 51
REMARK   3   BIN RESOLUTION RANGE HIGH       (A) : 1.55
REMARK   3   BIN RESOLUTION RANGE LOW        (A) : 1.61
REMARK   3   BIN COMPLETENESS (WORKING+TEST) (%) : 17.21
REMARK   3   REFLECTIONS IN BIN   (WORKING+TEST) : 526
REMARK   3   BIN R VALUE          (WORKING+TEST) : 0.4655
REMARK   3   REFLECTIONS IN BIN    (WORKING SET) : 500
REMARK   3   BIN R VALUE           (WORKING SET) : 0.4652
REMARK   3   BIN FREE R VALUE                    : 0.4714
REMARK   3   BIN FREE R VALUE TEST SET SIZE  (%) : 4.94
REMARK   3   BIN FREE R VALUE TEST SET COUNT     : 26
REMARK   3   ESTIMATED ERROR OF BIN FREE R VALUE : NULL
REMARK   3
REMARK   3  NUMBER OF NON-HYDROGEN ATOMS USED IN REFINEMENT.
REMARK   3   PROTEIN ATOMS            : 1476
REMARK   3   NUCLEIC ACID ATOMS       : 0
REMARK   3   HETEROGEN ATOMS          : 44
REMARK   3   SOLVENT ATOMS            : 98
REMARK   3
REMARK   3  B VALUES.
REMARK   3   FROM WILSON PLOT           (A**2) : 33.60
REMARK   3   MEAN B VALUE      (OVERALL, A**2) : 49.01
REMARK   3   OVERALL ANISOTROPIC B VALUE.
REMARK   3    B11 (A**2) : -5.93170
REMARK   3    B22 (A**2) : -5.93170
REMARK   3    B33 (A**2) : 11.86350
REMARK   3    B12 (A**2) : 0.00000
REMARK   3    B13 (A**2) : 0.00000
REMARK   3    B23 (A**2) : 0.00000
REMARK   3
REMARK   3  ESTIMATED COORDINATE ERROR.
REMARK   3   ESD FROM LUZZATI PLOT                    (A) : 0.30
REMARK   3   DPI (BLOW EQ-10) BASED ON R VALUE        (A) : 0.114
REMARK   3   DPI (BLOW EQ-9) BASED ON FREE R VALUE    (A) : 0.103
REMARK   3   DPI (CRUICKSHANK) BASED ON R VALUE       (A) : 0.108
REMARK   3   DPI (CRUICKSHANK) BASED ON FREE R VALUE  (A) : 0.099
REMARK   3
REMARK   3   REFERENCES: BLOW, D. (2002) ACTA CRYST D58, 792-797
REMARK   3               CRUICKSHANK, D.W.J. (1999) ACTA CRYST D55, 583-601
REMARK   3
REMARK   3  CORRELATION COEFFICIENTS.
REMARK   3   CORRELATION COEFFICIENT FO-FC      : 0.944
REMARK   3   CORRELATION COEFFICIENT FO-FC FREE : 0.946
REMARK   3
REMARK   3  X-RAY WEIGHT : 4.01
REMARK   3
REMARK   3  GEOMETRY FUNCTION.                                                  
REMARK   3   RESTRAINT LIBRARIES.                                               
REMARK   3    NUMBER OF LIBRARIES USED :  10                                    
REMARK   3    LIBRARY  1 : protgeo_eh99.dat (V1.6.4.17) 20191001  STANDARD      
REMARK   3                 AMINO ACID DICTIONARY. BONDS AND ANGLES FROM         
REMARK   3                 ENGH AND HUBER EH99. OTHER VALUES BASED ON           
REMARK   3                 PREVIOUS TNT OR TAKEN FROM CCP4. INCLUDES            
REMARK   3                 HYDROGEN ATOMS.                                      
REMARK   3    LIBRARY  2 : exoticaa.dat (V1.3.4.15) 20200327  COLLECTION        
REMARK   3                 OF NON-STANDARD AMINO ACIDS, MAINLY EH91             
REMARK   3                 WITHOUT IDEAL DISTANCE INFO                          
REMARK   3    LIBRARY  3 : nuclgeo.dat (V1.13.4.8) 20190909                     
REMARK   3    LIBRARY  4 : bcorrel.dat (V1.15.10.2) 20190616                    
REMARK   3    LIBRARY  5 : contact.dat (V1.15.12.10) 20191121                   
REMARK   3    LIBRARY  6 : idealdist_contact.dat (V1.3.4.12) 20191001           
REMARK   3                 IDEAL-DISTANCE CONTACT TERM DATA AS USED IN          
REMARK   3                 PROLSQ. VALUES USED HERE ARE BASED ON DATA           
REMARK   3                 HARVESTING OF PDB AS OF 20190109.                    
REMARK   3    LIBRARY  7 : restraints for LIG (unknown) from cif                
REMARK   3                 dictionary ASAP-0017692-001.cif; generated by        
REMARK   3                 GRADE 1.2.20 (Dec 01 2020) from SMILES               
REMARK   3                 NCCc1ccc(NC(=O)c2cc(Cl)cc(NC(=O)OCc3ccccc3)c2)cc     
REMARK   3                 1 using MOGUL 1.8.5(274361), CSD as541be, with       
REMARK   3                 quantum mechanics RM1                                
REMARK   3    LIBRARY  8 : restraints for DMS (DIMETHYL SULFOXIDE) from         
REMARK   3                 cif dictionary DMS.cif; buster common-compounds      
REMARK   3                 v 2.0 (19 Dec 2011)                                  
REMARK   3    LIBRARY  9 : restraints for SO4 (SULFATE ION) from cif            
REMARK   3                 dictionary SO4.cif; buster common-compounds v        
REMARK   3                 2.0 (19 Dec 2011)                                    
REMARK   3    LIBRARY 10 : assume.dat (V1.9.4.2) 20180705                       
REMARK   3                                                                      
REMARK   3   NUMBER OF GEOMETRIC FUNCTION TERMS DEFINED : 15                    
REMARK   3   TERM                          COUNT    WEIGHT   FUNCTION.          
REMARK   3    BOND LENGTHS              :   1578 ;   2.00 ;  HARMONIC           
REMARK   3    BOND ANGLES               :   2146 ;   2.00 ;  HARMONIC           
REMARK   3    TORSION ANGLES            :    537 ;   2.00 ;  SINUSOIDAL         
REMARK   3    TRIGONAL CARBON PLANES    :   NULL ;   NULL ;  NULL               
REMARK   3    GENERAL PLANES            :    295 ;   5.00 ;  HARMONIC           
REMARK   3    ISOTROPIC THERMAL FACTORS :   1578 ;  10.00 ;  HARMONIC           
REMARK   3    BAD NON-BONDED CONTACTS   :   NULL ;   NULL ;  NULL               
REMARK   3    IMPROPER TORSIONS         :   NULL ;   NULL ;  NULL               
REMARK   3    PSEUDOROTATION ANGLES     :   NULL ;   NULL ;  NULL               
REMARK   3    CHIRAL IMPROPER TORSION   :    194 ;   5.00 ;  SEMIHARMONIC       
REMARK   3    SUM OF OCCUPANCIES        :   NULL ;   NULL ;  NULL               
REMARK   3    UTILITY DISTANCES         :   NULL ;   NULL ;  NULL               
REMARK   3    UTILITY ANGLES            :   NULL ;   NULL ;  NULL               
REMARK   3    UTILITY TORSION           :   NULL ;   NULL ;  NULL               
REMARK   3    IDEAL-DIST CONTACT TERM   :   1249 ;   4.00 ;  SEMIHARMONIC       
REMARK   3                                                                      
REMARK   3   RMS DEVIATIONS FROM IDEAL VALUES.                                  
REMARK   3   BOND LENGTHS                       (A) : 0.008                     
REMARK   3   BOND ANGLES                  (DEGREES) : 0.95                      
REMARK   3   PEPTIDE OMEGA TORSION ANGLES (DEGREES) : 3.53                      
REMARK   3   OTHER TORSION ANGLES         (DEGREES) : 15.44                     
REMARK   3                                                                      
REMARK   3   SIMILARITY.                                                        
REMARK   3    NCS.                                                              
REMARK   3     NCS METHOD: NONE                                                 
REMARK   3    TARGET RESTRAINTS.                                                
REMARK   3     TARGET REPRESENTATION : NONE                                     
REMARK   3     TARGET STRUCTURE : NULL                                          
REMARK   3                                                                      
REMARK   3  TLS DETAILS.                                                        
REMARK   3   NUMBER OF TLS GROUPS  :            2                               
REMARK   3                                                                      
REMARK   3   TLS GROUP :            1                                           
REMARK   3    SET : { A|* }                                                     
REMARK   3    ORIGIN FOR THE GROUP (A):  -13.5350   -1.3274  -19.3908           
REMARK   3    T TENSOR                                                          
REMARK   3     T11:   -0.0547 T22:   -0.0914                                    
REMARK   3     T33:   -0.1443 T12:    0.1215                                    
REMARK   3     T13:    0.1076 T23:    0.0911                                    
REMARK   3    L TENSOR                                                          
REMARK   3     L11:    3.6413 L22:    3.5501                                    
REMARK   3     L33:    3.7917 L12:   -2.0765                                    
REMARK   3     L13:    0.6393 L23:    0.8555                                    
REMARK   3    S TENSOR                                                          
REMARK   3     S11:    0.4643 S12:    0.4052 S13:    0.2853                     
REMARK   3     S21:   -0.4921 S22:   -0.3584 S23:   -0.2555                     
REMARK   3     S31:    0.0898 S32:    0.4779 S33:   -0.1059                     
REMARK   3                                                                      
REMARK   3   TLS GROUP :            2                                           
REMARK   3    SET : { B|* }                                                     
REMARK   3    ORIGIN FOR THE GROUP (A):  -18.3523    1.3828  -15.8131           
REMARK   3    T TENSOR                                                          
REMARK   3     T11:    0.0209 T22:   -0.0450                                    
REMARK   3     T33:    0.0178 T12:    0.1146                                    
REMARK   3     T13:    0.0261 T23:    0.0180                                    
REMARK   3    L TENSOR                                                          
REMARK   3     L11:    1.5034 L22:    1.2416                                    
REMARK   3     L33:    2.0124 L12:   -1.1056                                    
REMARK   3     L13:    0.3414 L23:   -0.0485                                    
REMARK   3    S TENSOR                                                          
REMARK   3     S11:    0.3011 S12:    0.1303 S13:    0.1016                     
REMARK   3     S21:   -0.1268 S22:   -0.2597 S23:    0.0320                     
REMARK   3     S31:    0.1044 S32:    0.1440 S33:   -0.0414                     
REMARK   3                                                                      
REMARK   3  REFINEMENT NOTES.                                                   
REMARK   3   NUMBER OF REFINEMENT NOTES :   1                                   
REMARK   3   NOTE   1 : IDEAL-DIST CONTACT TERM CONTACT SETUP. ALL ATOMS        
REMARK   3               HAVE CCP4 ATOM TYPE FROM LIBRARY                       
REMARK   3
REMARK   3  OTHER REFINEMENT REMARKS: NULL
REMARK   3
REMARK 290                                                            
REMARK 290 CRYSTALLOGRAPHIC SYMMETRY                                  
REMARK 290 SYMMETRY OPERATORS FOR SPACE GROUP: P 43 2 2               
REMARK 290                                                            
REMARK 290      SYMOP   SYMMETRY                                      
REMARK 290     NNNMMM   OPERATOR                                      
REMARK 290       1555   X,Y,Z                                         
REMARK 290       2555   -X,-Y,1/2+Z                                   
REMARK 290       3555   -Y,X,3/4+Z                                    
REMARK 290       4555   Y,-X,1/4+Z                                    
REMARK 290       5555   -X,Y,-Z                                       
REMARK 290       6555   X,-Y,1/2-Z                                    
REMARK 290       7555   Y,X,1/4-Z                                     
REMARK 290       8555   -Y,-X,3/4-Z                                   
REMARK 290                                                            
REMARK 290     WHERE NNN -> OPERATOR NUMBER                           
REMARK 290           MMM -> TRANSLATION VECTOR                        
REMARK 290                                                            
REMARK 290 CRYSTALLOGRAPHIC SYMMETRY TRANSFORMATIONS                  
REMARK 290 THE FOLLOWING TRANSFORMATIONS OPERATE ON THE ATOM/HETATM   
REMARK 290 RECORDS IN THIS ENTRY TO PRODUCE CRYSTALLOGRAPHICALLY      
REMARK 290 RELATED MOLECULES.                                         
REMARK 290   SMTRY1   1  1.000000  0.000000  0.000000        0.00000
REMARK 290   SMTRY2   1  0.000000  1.000000  0.000000        0.00000
REMARK 290   SMTRY3   1  0.000000  0.000000  1.000000        0.00000
REMARK 290   SMTRY1   2 -1.000000  0.000000  0.000000        0.00000
REMARK 290   SMTRY2   2  0.000000 -1.000000  0.000000        0.00000
REMARK 290   SMTRY3   2  0.000000  0.000000  1.000000      108.78050
REMARK 290   SMTRY1   3  0.000000 -1.000000  0.000000        0.00000
REMARK 290   SMTRY2   3  1.000000  0.000000  0.000000        0.00000
REMARK 290   SMTRY3   3  0.000000  0.000000  1.000000      163.17075
REMARK 290   SMTRY1   4  0.000000  1.000000  0.000000        0.00000
REMARK 290   SMTRY2   4 -1.000000  0.000000  0.000000        0.00000
REMARK 290   SMTRY3   4  0.000000  0.000000  1.000000       54.39025
REMARK 290   SMTRY1   5 -1.000000  0.000000  0.000000        0.00000
REMARK 290   SMTRY2   5  0.000000  1.000000  0.000000        0.00000
REMARK 290   SMTRY3   5  0.000000  0.000000 -1.000000        0.00000
REMARK 290   SMTRY1   6  1.000000  0.000000  0.000000        0.00000
REMARK 290   SMTRY2   6  0.000000 -1.000000  0.000000        0.00000
REMARK 290   SMTRY3   6  0.000000  0.000000 -1.000000      108.78050
REMARK 290   SMTRY1   7  0.000000  1.000000  0.000000        0.00000
REMARK 290   SMTRY2   7  1.000000  0.000000  0.000000        0.00000
REMARK 290   SMTRY3   7  0.000000  0.000000 -1.000000       54.39025
REMARK 290   SMTRY1   8  0.000000 -1.000000  0.000000        0.00000
REMARK 290   SMTRY2   8 -1.000000  0.000000  0.000000        0.00000
REMARK 290   SMTRY3   8  0.000000  0.000000 -1.000000      163.17075
REMARK 290                                                            
REMARK 290 REMARK: NULL                                               
CRYST1   42.308   42.308  217.561  90.00  90.00  90.00 P 43 2 2       


$$$$
XX01ZVNS2B-x3028_ASAP-0017733
  PyMOL3.0          3D                             0

 30 32  0  0  0  0  0  0  0  0999 V2000
   -9.8070    2.5710   -7.8630 N   0  0  0  0  0  0  0  0  0  0  0  0
   -9.1180    4.8590   -7.1950 C   0  0  0  0  0  0  0  0  0  0  0  0
   -7.3460    6.4240  -13.9160 O   0  0  0  0  0  0  0  0  0  0  0  0
  -10.7060    4.3720  -18.7750 Cl  0  0  0  0  0  0  0  0  0  0  0  0
   -8.8460    3.6560   -8.0920 C   0  0  0  0  0  0  0  0  0  0  0  0
   -8.7720    4.6640  -13.7330 N   0  0  0  0  0  0  0  0  0  0  0  0
   -3.9210    5.5270  -18.4010 O   0  0  0  0  0  0  0  0  0  0  0  0
   -8.8050    3.9500   -9.5810 C   0  0  0  0  0  0  0  0  0  0  0  0
   -6.0110    6.3710  -18.8060 N   0  0  0  0  0  0  0  0  0  0  0  0
   -4.8030    5.6390  -20.4930 O   0  0  0  0  0  0  0  0  0  0  0  0
   -8.9200    5.2480  -10.0580 C   0  0  0  0  0  0  0  0  0  0  0  0
   -8.9030    5.5150  -11.4150 C   0  0  0  0  0  0  0  0  0  0  0  0
   -8.7690    4.4760  -12.3310 C   0  0  0  0  0  0  0  0  0  0  0  0
   -8.0580    5.5710  -14.4400 C   0  0  0  0  0  0  0  0  0  0  0  0
   -8.1220    5.4290  -15.9280 C   0  0  0  0  0  0  0  0  0  0  0  0
   -9.2460    4.9320  -16.5780 C   0  0  0  0  0  0  0  0  0  0  0  0
   -9.2500    4.8630  -17.9570 C   0  0  0  0  0  0  0  0  0  0  0  0
   -8.1600    5.2500  -18.7100 C   0  0  0  0  0  0  0  0  0  0  0  0
   -7.0480    5.7720  -18.0600 C   0  0  0  0  0  0  0  0  0  0  0  0
   -4.8320    5.8040  -19.1530 C   0  0  0  0  0  0  0  0  0  0  0  0
   -3.5750    5.1020  -21.0540 C   0  0  0  0  0  0  0  0  0  0  0  0
   -3.5850    5.3750  -22.5280 C   0  0  0  0  0  0  0  0  0  0  0  0
   -2.5750    4.8970  -23.3490 C   0  0  0  0  0  0  0  0  0  0  0  0
   -2.5590    5.1970  -24.7000 C   0  0  0  0  0  0  0  0  0  0  0  0
   -3.5530    5.9790  -25.2470 C   0  0  0  0  0  0  0  0  0  0  0  0
   -4.5650    6.4550  -24.4450 C   0  0  0  0  0  0  0  0  0  0  0  0
   -4.5850    6.1510  -23.0950 C   0  0  0  0  0  0  0  0  0  0  0  0
   -7.0220    5.8410  -16.6720 C   0  0  0  0  0  0  0  0  0  0  0  0
   -8.6390    3.1780  -11.8590 C   0  0  0  0  0  0  0  0  0  0  0  0
   -8.6580    2.9250  -10.5010 C   0  0  0  0  0  0  0  0  0  0  0  0
  1  5  1  0  0  0  0
  2  5  1  0  0  0  0
  6 13  1  0  0  0  0
  7 20  2  0  0  0  0
  5  8  1  0  0  0  0
  9 19  1  0  0  0  0
 10 21  1  0  0  0  0
  8 11  4  0  0  0  0
 11 12  4  0  0  0  0
 12 13  4  0  0  0  0
 13 29  4  0  0  0  0
  3 14  2  0  0  0  0
  6 14  1  0  0  0  0
 14 15  1  0  0  0  0
 15 16  4  0  0  0  0
  4 17  1  0  0  0  0
 16 17  4  0  0  0  0
 17 18  4  0  0  0  0
 18 19  4  0  0  0  0
 19 28  4  0  0  0  0
  9 20  1  0  0  0  0
 10 20  1  0  0  0  0
 21 22  1  0  0  0  0
 22 23  4  0  0  0  0
 22 27  4  0  0  0  0
 23 24  4  0  0  0  0
 24 25  4  0  0  0  0
 25 26  4  0  0  0  0
 26 27  4  0  0  0  0
 15 28  4  0  0  0  0
 29 30  4  0  0  0  0
  8 30  4  0  0  0  0
M  END
>  <pdb_header>
REMARK --------------------- added by autoBUSTER ---------------------------------START
REMARK run at   = Mon Mar 18 18:21:32 GMT 2024
REMARK     in   = /dls/labxchem/data/lb32627/lb32627-65/processing/analysis/model_building/XX01ZVNS2B-x3028
REMARK     user = kyf22269
REMARK     cmd  = \
REMARK            /dls_sw/apps/GPhL/BUSTER/20211020/autoBUSTER/bin/linux64/refine \
REMARK            -p \
REMARK            /dls/labxchem/data/lb32627/lb32627-65/processing/analysis/model_building/XX01ZVNS2B-x3028/cootOut/Refine_6/in.pdb \
REMARK            -m \
REMARK            /dls/labxchem/data/lb32627/lb32627-65/processing/analysis/model_building/XX01ZVNS2B-x3028/XX01ZVNS2B-x3028.free.mtz \
REMARK            -l \
REMARK            /dls/labxchem/data/lb32627/lb32627-65/processing/analysis/model_building/XX01ZVNS2B-x3028/ASAP-0017733-001.cif \
REMARK            -autoncs -M TLSbasic -d Refine_6
REMARK Files used:
REMARK   PDB              = Refine_6/pdbchk.pdb
REMARK   MTZ              = /dls/labxchem/data/lb32627/lb32627-65/processing/analysis/model_building/XX01ZVNS2B-x3028/XX01ZVNS2B-x3028.free.mtz
REMARK output written to subdirectory = Refine_6
REMARK best refinement for F,SIGF with R/Rfree 0.2335/0.2652
REMARK header records are copied from input PDB file (apart from REMARK 3!)
REMARK --------------------- added by autoBUSTER -----------------------------------END
REMARK --------------------- added by autoBUSTER -------------------------------
REMARK run at   = Mon Mar 18 17:57:04 GMT 2024                                  
REMARK     in   = /dls/labxchem/data/lb32627/lb32627-65/processing/analysis/mode
REMARK     user = kyf22269                                                      
REMARK     cmd  = \                                                             
REMARK            /dls_sw/apps/GPhL/BUSTER/20211020/autoBUSTER/bin/linux64/refin
REMARK            -p \                                                          
REMARK            /dls/labxchem/data/lb32627/lb32627-65/processing/analysis/mode
REMARK            -m \                                                          
REMARK            /dls/labxchem/data/lb32627/lb32627-65/processing/analysis/mode
REMARK            -l \                                                          
REMARK            /dls/labxchem/data/lb32627/lb32627-65/processing/analysis/mode
REMARK            -autoncs -M TLSbasic -d Refine_5                              
REMARK Files used:                                                              
REMARK   PDB              = Refine_5/pdbchk.pdb                                 
REMARK   MTZ              = /dls/labxchem/data/lb32627/lb32627-65/processing/ana
REMARK output written to subdirectory = Refine_5                                
REMARK best refinement for F,SIGF with R/Rfree 0.2333/0.2650                    
REMARK header records are copied from input PDB file (apart from REMARK 3!)     
REMARK --------------------- added by autoBUSTER -------------------------------
REMARK --------------------- added by autoBUSTER -------------------------------
REMARK run at   = Mon Mar 18 17:47:24 GMT 2024                                  
REMARK     in   = /dls/labxchem/data/lb32627/lb32627-65/processing/analysis/mode
REMARK     user = kyf22269                                                      
REMARK     cmd  = \                                                             
REMARK            /dls_sw/apps/GPhL/BUSTER/20211020/autoBUSTER/bin/linux64/refin
REMARK            -p \                                                          
REMARK            /dls/labxchem/data/lb32627/lb32627-65/processing/analysis/mode
REMARK            -m \                                                          
REMARK            /dls/labxchem/data/lb32627/lb32627-65/processing/analysis/mode
REMARK            -l \                                                          
REMARK            /dls/labxchem/data/lb32627/lb32627-65/processing/analysis/mode
REMARK            -autoncs -M TLSbasic -d Refine_4                              
REMARK Files used:                                                              
REMARK   PDB              = Refine_4/pdbchk.pdb                                 
REMARK   MTZ              = /dls/labxchem/data/lb32627/lb32627-65/processing/ana
REMARK output written to subdirectory = Refine_4                                
REMARK best refinement for F,SIGF with R/Rfree 0.2355/0.2626                    
REMARK header records are copied from input PDB file (apart from REMARK 3!)     
REMARK --------------------- added by autoBUSTER -------------------------------
REMARK --------------------- added by autoBUSTER -------------------------------
REMARK run at   = Tue Mar  5 17:08:17 GMT 2024                                  
REMARK     in   = /dls/labxchem/data/lb32627/lb32627-65/processing/analysis/mode
REMARK     user = kyf22269                                                      
REMARK     cmd  = \                                                             
REMARK            /dls_sw/apps/GPhL/BUSTER/20211020/autoBUSTER/bin/linux64/refin
REMARK            -p \                                                          
REMARK            /dls/labxchem/data/lb32627/lb32627-65/processing/analysis/mode
REMARK            -m \                                                          
REMARK            /dls/labxchem/data/lb32627/lb32627-65/processing/analysis/mode
REMARK            -l \                                                          
REMARK            /dls/labxchem/data/lb32627/lb32627-65/processing/analysis/mode
REMARK            -autoncs -M TLSbasic -d Refine_3                              
REMARK Files used:                                                              
REMARK   PDB              = Refine_3/pdbchk.pdb                                 
REMARK   MTZ              = /dls/labxchem/data/lb32627/lb32627-65/processing/ana
REMARK output written to subdirectory = Refine_3                                
REMARK best refinement for F,SIGF with R/Rfree 0.2359/0.2609                    
REMARK header records are copied from input PDB file (apart from REMARK 3!)     
REMARK --------------------- added by autoBUSTER -------------------------------
REMARK --------------------- added by autoBUSTER -------------------------------
REMARK run at   = Tue Mar  5 14:25:52 GMT 2024                                  
REMARK     in   = /dls/labxchem/data/lb32627/lb32627-65/processing/analysis/mode
REMARK     user = kyf22269                                                      
REMARK     cmd  = \                                                             
REMARK            /dls_sw/apps/GPhL/BUSTER/20211020/autoBUSTER/bin/linux64/refin
REMARK            -p \                                                          
REMARK            /dls/labxchem/data/lb32627/lb32627-65/processing/analysis/mode
REMARK            -m \                                                          
REMARK            /dls/labxchem/data/lb32627/lb32627-65/processing/analysis/mode
REMARK            -l \                                                          
REMARK            /dls/labxchem/data/lb32627/lb32627-65/processing/analysis/mode
REMARK            -autoncs -M TLSbasic -d Refine_2                              
REMARK Files used:                                                              
REMARK   PDB              = Refine_2/pdbchk.pdb                                 
REMARK   MTZ              = /dls/labxchem/data/lb32627/lb32627-65/processing/ana
REMARK output written to subdirectory = Refine_2                                
REMARK best refinement for F,SIGF with R/Rfree 0.2391/0.2665                    
REMARK header records are copied from input PDB file (apart from REMARK 3!)     
REMARK --------------------- added by autoBUSTER -------------------------------
REMARK --------------------- added by autoBUSTER -------------------------------
REMARK run at   = Thu Feb 29 11:53:17 GMT 2024                                  
REMARK     in   = /dls/labxchem/data/lb32627/lb32627-65/processing/analysis/mode
REMARK     user = kyf22269                                                      
REMARK     cmd  = \                                                             
REMARK            /dls_sw/apps/GPhL/BUSTER/20211020/autoBUSTER/bin/linux64/refin
REMARK            -p \                                                          
REMARK            /dls/labxchem/data/lb32627/lb32627-65/processing/analysis/mode
REMARK            -m \                                                          
REMARK            /dls/labxchem/data/lb32627/lb32627-65/processing/analysis/mode
REMARK            -l \                                                          
REMARK            /dls/labxchem/data/lb32627/lb32627-65/processing/analysis/mode
REMARK            -autoncs -M TLSbasic StopOnGellySanityCheckError=no -d \      
REMARK            Refine_1                                                      
REMARK Files used:                                                              
REMARK   PDB              = Refine_1/pdbchk.pdb                                 
REMARK   MTZ              = /dls/labxchem/data/lb32627/lb32627-65/processing/ana
REMARK output written to subdirectory = Refine_1                                
REMARK best refinement for F,SIGF with R/Rfree 0.2406/0.2668                    
REMARK header records are copied from input PDB file (apart from REMARK 3!)     
REMARK --------------------- added by autoBUSTER -------------------------------
HEADER    ----                                    23-FEB-23                     
TITLE     ---                                                                   
COMPND    ---                                                                   
EXPDTA    X-RAY DIFFRACTION
REMARK   2                                                            
REMARK   2 RESOLUTION.    1.86 ANGSTROMS.
REMARK   3
REMARK   3 REFINEMENT.
REMARK   3   PROGRAM     : BUSTER 2.10.4 (20-OCT-2021)
REMARK   3   AUTHORS     : BRICOGNE,BLANC,BRANDL,FLENSBURG,KELLER,
REMARK   3               : PACIOREK,ROVERSI,SHARFF,SMART,VONRHEIN,WOMACK;
REMARK   3               : MATTHEWS,TEN EYCK,TRONRUD
REMARK   3
REMARK   3  DATA USED IN REFINEMENT.
REMARK   3   RESOLUTION RANGE HIGH (ANGSTROMS) : 1.860
REMARK   3   RESOLUTION RANGE LOW  (ANGSTROMS) : 42.53
REMARK   3   DATA CUTOFF            (SIGMA(F)) : 0.000
REMARK   3   COMPLETENESS FOR RANGE        (%) : 99.9
REMARK   3   NUMBER OF REFLECTIONS             : 17894
REMARK   3
REMARK   3  FIT TO DATA USED IN REFINEMENT.
REMARK   3   CROSS-VALIDATION METHOD          : THROUGHOUT
REMARK   3   FREE R VALUE TEST SET SELECTION  : RANDOM
REMARK   3   R VALUE     (WORKING + TEST SET) : 0.2350
REMARK   3   R VALUE            (WORKING SET) : 0.2335
REMARK   3   FREE R VALUE                     : 0.2652
REMARK   3   FREE R VALUE TEST SET SIZE   (%) : 4.950
REMARK   3   FREE R VALUE TEST SET COUNT      : 885
REMARK   3   ESTIMATED ERROR OF FREE R VALUE  : NULL
REMARK   3
REMARK   3  FIT IN THE HIGHEST RESOLUTION BIN.
REMARK   3   TOTAL NUMBER OF BINS USED           : 45
REMARK   3   BIN RESOLUTION RANGE HIGH       (A) : 1.86
REMARK   3   BIN RESOLUTION RANGE LOW        (A) : 1.88
REMARK   3   BIN COMPLETENESS (WORKING+TEST) (%) : 98.05
REMARK   3   REFLECTIONS IN BIN   (WORKING+TEST) : 407
REMARK   3   BIN R VALUE          (WORKING+TEST) : 0.4234
REMARK   3   REFLECTIONS IN BIN    (WORKING SET) : 380
REMARK   3   BIN R VALUE           (WORKING SET) : 0.4225
REMARK   3   BIN FREE R VALUE                    : 0.4372
REMARK   3   BIN FREE R VALUE TEST SET SIZE  (%) : 6.63
REMARK   3   BIN FREE R VALUE TEST SET COUNT     : 27
REMARK   3   ESTIMATED ERROR OF BIN FREE R VALUE : NULL
REMARK   3
REMARK   3  NUMBER OF NON-HYDROGEN ATOMS USED IN REFINEMENT.
REMARK   3   PROTEIN ATOMS            : 1476
REMARK   3   NUCLEIC ACID ATOMS       : 0
REMARK   3   HETEROGEN ATOMS          : 34
REMARK   3   SOLVENT ATOMS            : 77
REMARK   3
REMARK   3  B VALUES.
REMARK   3   FROM WILSON PLOT           (A**2) : 43.51
REMARK   3   MEAN B VALUE      (OVERALL, A**2) : 59.36
REMARK   3   OVERALL ANISOTROPIC B VALUE.
REMARK   3    B11 (A**2) : -5.45470
REMARK   3    B22 (A**2) : -5.45470
REMARK   3    B33 (A**2) : 10.90940
REMARK   3    B12 (A**2) : 0.00000
REMARK   3    B13 (A**2) : 0.00000
REMARK   3    B23 (A**2) : 0.00000
REMARK   3
REMARK   3  ESTIMATED COORDINATE ERROR.
REMARK   3   ESD FROM LUZZATI PLOT                    (A) : 0.30
REMARK   3   DPI (BLOW EQ-10) BASED ON R VALUE        (A) : 0.173
REMARK   3   DPI (BLOW EQ-9) BASED ON FREE R VALUE    (A) : 0.153
REMARK   3   DPI (CRUICKSHANK) BASED ON R VALUE       (A) : 0.163
REMARK   3   DPI (CRUICKSHANK) BASED ON FREE R VALUE  (A) : 0.148
REMARK   3
REMARK   3   REFERENCES: BLOW, D. (2002) ACTA CRYST D58, 792-797
REMARK   3               CRUICKSHANK, D.W.J. (1999) ACTA CRYST D55, 583-601
REMARK   3
REMARK   3  CORRELATION COEFFICIENTS.
REMARK   3   CORRELATION COEFFICIENT FO-FC      : 0.943
REMARK   3   CORRELATION COEFFICIENT FO-FC FREE : 0.933
REMARK   3
REMARK   3  X-RAY WEIGHT : 5.60
REMARK   3
REMARK   3  GEOMETRY FUNCTION.                                                  
REMARK   3   RESTRAINT LIBRARIES.                                               
REMARK   3    NUMBER OF LIBRARIES USED :   9                                    
REMARK   3    LIBRARY  1 : protgeo_eh99.dat (V1.6.4.17) 20191001  STANDARD      
REMARK   3                 AMINO ACID DICTIONARY. BONDS AND ANGLES FROM         
REMARK   3                 ENGH AND HUBER EH99. OTHER VALUES BASED ON           
REMARK   3                 PREVIOUS TNT OR TAKEN FROM CCP4. INCLUDES            
REMARK   3                 HYDROGEN ATOMS.                                      
REMARK   3    LIBRARY  2 : exoticaa.dat (V1.3.4.15) 20200327  COLLECTION        
REMARK   3                 OF NON-STANDARD AMINO ACIDS, MAINLY EH91             
REMARK   3                 WITHOUT IDEAL DISTANCE INFO                          
REMARK   3    LIBRARY  3 : nuclgeo.dat (V1.13.4.8) 20190909                     
REMARK   3    LIBRARY  4 : bcorrel.dat (V1.15.10.2) 20190616                    
REMARK   3    LIBRARY  5 : contact.dat (V1.15.12.10) 20191121                   
REMARK   3    LIBRARY  6 : idealdist_contact.dat (V1.3.4.12) 20191001           
REMARK   3                 IDEAL-DISTANCE CONTACT TERM DATA AS USED IN          
REMARK   3                 PROLSQ. VALUES USED HERE ARE BASED ON DATA           
REMARK   3                 HARVESTING OF PDB AS OF 20190109.                    
REMARK   3    LIBRARY  7 : restraints for LIG (unknown) from cif                
REMARK   3                 dictionary ASAP-0017733-001.cif; generated by        
REMARK   3                 GRADE 1.2.20 (Dec 01 2020) from SMILES               
REMARK   3                 C[C@@H](N)c1ccc(NC(=O)c2cc(Cl)cc(NC(=O)OCc3ccccc     
REMARK   3                 3)c2)cc1 using MOGUL 1.8.5(274361), CSD              
REMARK   3                 as541be, with quantum mechanics RM1                  
REMARK   3    LIBRARY  8 : restraints for DMS (DIMETHYL SULFOXIDE) from         
REMARK   3                 cif dictionary DMS.cif; buster common-compounds      
REMARK   3                 v 2.0 (19 Dec 2011)                                  
REMARK   3    LIBRARY  9 : assume.dat (V1.9.4.2) 20180705                       
REMARK   3                                                                      
REMARK   3   NUMBER OF GEOMETRIC FUNCTION TERMS DEFINED : 15                    
REMARK   3   TERM                          COUNT    WEIGHT   FUNCTION.          
REMARK   3    BOND LENGTHS              :   1570 ;   2.00 ;  HARMONIC           
REMARK   3    BOND ANGLES               :   2135 ;   2.00 ;  HARMONIC           
REMARK   3    TORSION ANGLES            :    536 ;   2.00 ;  SINUSOIDAL         
REMARK   3    TRIGONAL CARBON PLANES    :   NULL ;   NULL ;  NULL               
REMARK   3    GENERAL PLANES            :    294 ;   5.00 ;  HARMONIC           
REMARK   3    ISOTROPIC THERMAL FACTORS :   1570 ;  10.00 ;  HARMONIC           
REMARK   3    BAD NON-BONDED CONTACTS   :   NULL ;   NULL ;  NULL               
REMARK   3    IMPROPER TORSIONS         :   NULL ;   NULL ;  NULL               
REMARK   3    PSEUDOROTATION ANGLES     :   NULL ;   NULL ;  NULL               
REMARK   3    CHIRAL IMPROPER TORSION   :    195 ;   5.00 ;  SEMIHARMONIC       
REMARK   3    SUM OF OCCUPANCIES        :   NULL ;   NULL ;  NULL               
REMARK   3    UTILITY DISTANCES         :   NULL ;   NULL ;  NULL               
REMARK   3    UTILITY ANGLES            :   NULL ;   NULL ;  NULL               
REMARK   3    UTILITY TORSION           :   NULL ;   NULL ;  NULL               
REMARK   3    IDEAL-DIST CONTACT TERM   :   1149 ;   4.00 ;  SEMIHARMONIC       
REMARK   3                                                                      
REMARK   3   RMS DEVIATIONS FROM IDEAL VALUES.                                  
REMARK   3   BOND LENGTHS                       (A) : 0.008                     
REMARK   3   BOND ANGLES                  (DEGREES) : 0.94                      
REMARK   3   PEPTIDE OMEGA TORSION ANGLES (DEGREES) : 3.35                      
REMARK   3   OTHER TORSION ANGLES         (DEGREES) : 14.80                     
REMARK   3                                                                      
REMARK   3   SIMILARITY.                                                        
REMARK   3    NCS.                                                              
REMARK   3     NCS METHOD: NONE                                                 
REMARK   3    TARGET RESTRAINTS.                                                
REMARK   3     TARGET REPRESENTATION : NONE                                     
REMARK   3     TARGET STRUCTURE : NULL                                          
REMARK   3                                                                      
REMARK   3  TLS DETAILS.                                                        
REMARK   3   NUMBER OF TLS GROUPS  :            2                               
REMARK   3                                                                      
REMARK   3   TLS GROUP :            1                                           
REMARK   3    SET : { A|* }                                                     
REMARK   3    ORIGIN FOR THE GROUP (A):  -13.5252   -1.4916  -19.3868           
REMARK   3    T TENSOR                                                          
REMARK   3     T11:   -0.0081 T22:   -0.0789                                    
REMARK   3     T33:   -0.2494 T12:    0.2256                                    
REMARK   3     T13:    0.1433 T23:    0.1086                                    
REMARK   3    L TENSOR                                                          
REMARK   3     L11:    4.0525 L22:    4.1014                                    
REMARK   3     L33:    4.7984 L12:   -2.3558                                    
REMARK   3     L13:    0.0660 L23:    1.1536                                    
REMARK   3    S TENSOR                                                          
REMARK   3     S11:    0.6004 S12:    0.4650 S13:    0.3509                     
REMARK   3     S21:   -0.6256 S22:   -0.4881 S23:   -0.3791                     
REMARK   3     S31:    0.0240 S32:    0.4636 S33:   -0.1123                     
REMARK   3                                                                      
REMARK   3   TLS GROUP :            2                                           
REMARK   3    SET : { B|* }                                                     
REMARK   3    ORIGIN FOR THE GROUP (A):  -18.3733    1.0809  -15.8273           
REMARK   3    T TENSOR                                                          
REMARK   3     T11:    0.0932 T22:    0.0100                                    
REMARK   3     T33:   -0.0700 T12:    0.1794                                    
REMARK   3     T13:    0.0374 T23:    0.0406                                    
REMARK   3    L TENSOR                                                          
REMARK   3     L11:    1.8347 L22:    1.7980                                    
REMARK   3     L33:    2.4700 L12:   -1.5449                                    
REMARK   3     L13:    0.3636 L23:   -0.0504                                    
REMARK   3    S TENSOR                                                          
REMARK   3     S11:    0.4826 S12:    0.1718 S13:    0.1625                     
REMARK   3     S21:   -0.2276 S22:   -0.4079 S23:    0.0418                     
REMARK   3     S31:    0.1611 S32:    0.2001 S33:   -0.0747                     
REMARK   3                                                                      
REMARK   3  REFINEMENT NOTES.                                                   
REMARK   3   NUMBER OF REFINEMENT NOTES :   1                                   
REMARK   3   NOTE   1 : IDEAL-DIST CONTACT TERM CONTACT SETUP. ALL ATOMS        
REMARK   3               HAVE CCP4 ATOM TYPE FROM LIBRARY                       
REMARK   3
REMARK   3  OTHER REFINEMENT REMARKS: NULL
REMARK   3
REMARK 290                                                            
REMARK 290 CRYSTALLOGRAPHIC SYMMETRY                                  
REMARK 290 SYMMETRY OPERATORS FOR SPACE GROUP: P 43 2 2               
REMARK 290                                                            
REMARK 290      SYMOP   SYMMETRY                                      
REMARK 290     NNNMMM   OPERATOR                                      
REMARK 290       1555   X,Y,Z                                         
REMARK 290       2555   -X,-Y,1/2+Z                                   
REMARK 290       3555   -Y,X,3/4+Z                                    
REMARK 290       4555   Y,-X,1/4+Z                                    
REMARK 290       5555   -X,Y,-Z                                       
REMARK 290       6555   X,-Y,1/2-Z                                    
REMARK 290       7555   Y,X,1/4-Z                                     
REMARK 290       8555   -Y,-X,3/4-Z                                   
REMARK 290                                                            
REMARK 290     WHERE NNN -> OPERATOR NUMBER                           
REMARK 290           MMM -> TRANSLATION VECTOR                        
REMARK 290                                                            
REMARK 290 CRYSTALLOGRAPHIC SYMMETRY TRANSFORMATIONS                  
REMARK 290 THE FOLLOWING TRANSFORMATIONS OPERATE ON THE ATOM/HETATM   
REMARK 290 RECORDS IN THIS ENTRY TO PRODUCE CRYSTALLOGRAPHICALLY      
REMARK 290 RELATED MOLECULES.                                         
REMARK 290   SMTRY1   1  1.000000  0.000000  0.000000        0.00000
REMARK 290   SMTRY2   1  0.000000  1.000000  0.000000        0.00000
REMARK 290   SMTRY3   1  0.000000  0.000000  1.000000        0.00000
REMARK 290   SMTRY1   2 -1.000000  0.000000  0.000000        0.00000
REMARK 290   SMTRY2   2  0.000000 -1.000000  0.000000        0.00000
REMARK 290   SMTRY3   2  0.000000  0.000000  1.000000      109.06500
REMARK 290   SMTRY1   3  0.000000 -1.000000  0.000000        0.00000
REMARK 290   SMTRY2   3  1.000000  0.000000  0.000000        0.00000
REMARK 290   SMTRY3   3  0.000000  0.000000  1.000000      163.59750
REMARK 290   SMTRY1   4  0.000000  1.000000  0.000000        0.00000
REMARK 290   SMTRY2   4 -1.000000  0.000000  0.000000        0.00000
REMARK 290   SMTRY3   4  0.000000  0.000000  1.000000       54.53250
REMARK 290   SMTRY1   5 -1.000000  0.000000  0.000000        0.00000
REMARK 290   SMTRY2   5  0.000000  1.000000  0.000000        0.00000
REMARK 290   SMTRY3   5  0.000000  0.000000 -1.000000        0.00000
REMARK 290   SMTRY1   6  1.000000  0.000000  0.000000        0.00000
REMARK 290   SMTRY2   6  0.000000 -1.000000  0.000000        0.00000
REMARK 290   SMTRY3   6  0.000000  0.000000 -1.000000      109.06500
REMARK 290   SMTRY1   7  0.000000  1.000000  0.000000        0.00000
REMARK 290   SMTRY2   7  1.000000  0.000000  0.000000        0.00000
REMARK 290   SMTRY3   7  0.000000  0.000000 -1.000000       54.53250
REMARK 290   SMTRY1   8  0.000000 -1.000000  0.000000        0.00000
REMARK 290   SMTRY2   8 -1.000000  0.000000  0.000000        0.00000
REMARK 290   SMTRY3   8  0.000000  0.000000 -1.000000      163.59750
REMARK 290                                                            
REMARK 290 REMARK: NULL                                               
CRYST1   42.530   42.530  218.130  90.00  90.00  90.00 P 43 2 2       


$$$$
XX01ZVNS2B-x3059_ASAP-0020915
  PyMOL3.0          3D                             0

 30 33  0  0  0  0  0  0  0  0999 V2000
   -5.9150    5.7590  -18.3380 N   0  0  0  0  0  0  0  0  0  0  0  0
   -4.6490    5.8960  -17.8610 C   0  0  0  0  0  0  0  0  0  0  0  0
   -4.3090    5.9160  -16.6950 O   0  0  0  0  0  0  0  0  0  0  0  0
  -10.8470    4.4600  -18.4250 Cl  0  0  0  0  0  0  0  0  0  0  0  0
   -7.0940    5.5140  -17.5950 C   0  0  0  0  0  0  0  0  0  0  0  0
   -9.0620    4.7370  -13.2580 N   0  0  0  0  0  0  0  0  0  0  0  0
   -7.2130    6.0360  -13.5130 O   0  0  0  0  0  0  0  0  0  0  0  0
   -8.2420    5.1370  -18.2840 C   0  0  0  0  0  0  0  0  0  0  0  0
   -9.3470    2.9570   -7.5250 N   0  0  0  0  0  0  0  0  0  0  0  0
   -3.8110    6.1020  -18.8990 O   0  0  0  0  0  0  0  0  0  0  0  0
   -9.3810    4.8350  -17.5620 C   0  0  0  0  0  0  0  0  0  0  0  0
   -9.4070    4.8740  -16.1790 C   0  0  0  0  0  0  0  0  0  0  0  0
   -8.2610    5.2620  -15.4920 C   0  0  0  0  0  0  0  0  0  0  0  0
   -8.1360    5.3910  -14.0060 C   0  0  0  0  0  0  0  0  0  0  0  0
   -9.1250    4.7050  -11.8370 C   0  0  0  0  0  0  0  0  0  0  0  0
   -8.9580    5.8870  -11.1180 C   0  0  0  0  0  0  0  0  0  0  0  0
   -8.9750    5.8680   -9.7330 C   0  0  0  0  0  0  0  0  0  0  0  0
   -9.1740    4.6750   -9.0470 C   0  0  0  0  0  0  0  0  0  0  0  0
   -9.3630    3.4980   -9.7570 C   0  0  0  0  0  0  0  0  0  0  0  0
   -9.3240    3.5090  -11.1500 C   0  0  0  0  0  0  0  0  0  0  0  0
   -9.6380    2.3590   -8.8210 C   0  0  0  0  0  0  0  0  0  0  0  0
   -9.2220    4.4150   -7.5700 C   0  0  0  0  0  0  0  0  0  0  0  0
   -7.1130    5.5900  -16.2050 C   0  0  0  0  0  0  0  0  0  0  0  0
   -2.4420    6.4710  -18.5640 C   0  0  0  0  0  0  0  0  0  0  0  0
   -2.2480    7.8860  -19.0290 C   0  0  0  0  0  0  0  0  0  0  0  0
   -3.1450    8.8740  -18.6460 C   0  0  0  0  0  0  0  0  0  0  0  0
   -3.1170   10.1230  -19.2410 C   0  0  0  0  0  0  0  0  0  0  0  0
   -2.1840   10.4050  -20.2140 C   0  0  0  0  0  0  0  0  0  0  0  0
   -1.2560    9.4510  -20.5670 C   0  0  0  0  0  0  0  0  0  0  0  0
   -1.2830    8.1990  -19.9760 C   0  0  0  0  0  0  0  0  0  0  0  0
  1  2  1  0  0  0  0
  2  3  2  0  0  0  0
  2 10  1  0  0  0  0
  1  5  1  0  0  0  0
  6 15  1  0  0  0  0
  7 14  2  0  0  0  0
  5  8  4  0  0  0  0
  9 22  4  0  0  0  0
 10 24  1  0  0  0  0
  4 11  1  0  0  0  0
  8 11  4  0  0  0  0
 11 12  4  0  0  0  0
 12 13  4  0  0  0  0
 13 23  4  0  0  0  0
  6 14  1  0  0  0  0
 13 14  1  0  0  0  0
 15 16  4  0  0  0  0
 15 20  4  0  0  0  0
 16 17  4  0  0  0  0
 17 18  4  0  0  0  0
 18 19  4  0  0  0  0
 19 21  4  0  0  0  0
 19 20  4  0  0  0  0
  9 21  4  0  0  0  0
 18 22  4  0  0  0  0
  5 23  4  0  0  0  0
 24 25  1  0  0  0  0
 25 26  4  0  0  0  0
 25 30  4  0  0  0  0
 26 27  4  0  0  0  0
 27 28  4  0  0  0  0
 28 29  4  0  0  0  0
 29 30  4  0  0  0  0
M  END
>  <pdb_header>
REMARK --------------------- added by autoBUSTER ---------------------------------START
REMARK run at   = Mon Mar 18 17:49:11 GMT 2024
REMARK     in   = /dls/labxchem/data/lb32627/lb32627-65/processing/analysis/model_building/XX01ZVNS2B-x3059
REMARK     user = kyf22269
REMARK     cmd  = \
REMARK            /dls_sw/apps/GPhL/BUSTER/20211020/autoBUSTER/bin/linux64/refine \
REMARK            -p \
REMARK            /dls/labxchem/data/lb32627/lb32627-65/processing/analysis/model_building/XX01ZVNS2B-x3059/cootOut/Refine_3/in.pdb \
REMARK            -m \
REMARK            /dls/labxchem/data/lb32627/lb32627-65/processing/analysis/model_building/XX01ZVNS2B-x3059/XX01ZVNS2B-x3059.free.mtz \
REMARK            -l \
REMARK            /dls/labxchem/data/lb32627/lb32627-65/processing/analysis/model_building/XX01ZVNS2B-x3059/ASAP-0020915-001.cif \
REMARK            -autoncs -M TLSbasic -d Refine_3
REMARK Files used:
REMARK   PDB              = Refine_3/pdbchk.pdb
REMARK   MTZ              = /dls/labxchem/data/lb32627/lb32627-65/processing/analysis/model_building/XX01ZVNS2B-x3059/XX01ZVNS2B-x3059.free.mtz
REMARK output written to subdirectory = Refine_3
REMARK best refinement for F,SIGF with R/Rfree 0.2216/0.2593
REMARK header records are copied from input PDB file (apart from REMARK 3!)
REMARK --------------------- added by autoBUSTER -----------------------------------END
REMARK --------------------- added by autoBUSTER -------------------------------
REMARK run at   = Mon Mar 11 16:10:10 GMT 2024                                  
REMARK     in   = /dls/labxchem/data/lb32627/lb32627-65/processing/analysis/mode
REMARK     user = kyf22269                                                      
REMARK     cmd  = \                                                             
REMARK            /dls_sw/apps/GPhL/BUSTER/20211020/autoBUSTER/bin/linux64/refin
REMARK            -p \                                                          
REMARK            /dls/labxchem/data/lb32627/lb32627-65/processing/analysis/mode
REMARK            -m \                                                          
REMARK            /dls/labxchem/data/lb32627/lb32627-65/processing/analysis/mode
REMARK            -l \                                                          
REMARK            /dls/labxchem/data/lb32627/lb32627-65/processing/analysis/mode
REMARK            -autoncs -M TLSbasic -d Refine_2                              
REMARK Files used:                                                              
REMARK   PDB              = Refine_2/pdbchk.pdb                                 
REMARK   MTZ              = /dls/labxchem/data/lb32627/lb32627-65/processing/ana
REMARK output written to subdirectory = Refine_2                                
REMARK best refinement for F,SIGF with R/Rfree 0.2222/0.2597                    
REMARK header records are copied from input PDB file (apart from REMARK 3!)     
REMARK --------------------- added by autoBUSTER -------------------------------
REMARK --------------------- added by autoBUSTER -------------------------------
REMARK run at   = Mon Mar 11 15:53:14 GMT 2024                                  
REMARK     in   = /dls/labxchem/data/lb32627/lb32627-65/processing/analysis/mode
REMARK     user = kyf22269                                                      
REMARK     cmd  = \                                                             
REMARK            /dls_sw/apps/GPhL/BUSTER/20211020/autoBUSTER/bin/linux64/refin
REMARK            -p \                                                          
REMARK            /dls/labxchem/data/lb32627/lb32627-65/processing/analysis/mode
REMARK            -m \                                                          
REMARK            /dls/labxchem/data/lb32627/lb32627-65/processing/analysis/mode
REMARK            -l \                                                          
REMARK            /dls/labxchem/data/lb32627/lb32627-65/processing/analysis/mode
REMARK            -autoncs -M TLSbasic -d Refine_1                              
REMARK Files used:                                                              
REMARK   PDB              = Refine_1/pdbchk.pdb                                 
REMARK   MTZ              = /dls/labxchem/data/lb32627/lb32627-65/processing/ana
REMARK output written to subdirectory = Refine_1                                
REMARK best refinement for F,SIGF with R/Rfree 0.2254/0.2604                    
REMARK header records are copied from input PDB file (apart from REMARK 3!)     
REMARK --------------------- added by autoBUSTER -------------------------------
HEADER    ----                                    23-FEB-23                     
TITLE     ---                                                                   
COMPND    ---                                                                   
EXPDTA    X-RAY DIFFRACTION
REMARK   2                                                            
REMARK   2 RESOLUTION.    2.04 ANGSTROMS.
REMARK   3
REMARK   3 REFINEMENT.
REMARK   3   PROGRAM     : BUSTER 2.10.4 (20-OCT-2021)
REMARK   3   AUTHORS     : BRICOGNE,BLANC,BRANDL,FLENSBURG,KELLER,
REMARK   3               : PACIOREK,ROVERSI,SHARFF,SMART,VONRHEIN,WOMACK;
REMARK   3               : MATTHEWS,TEN EYCK,TRONRUD
REMARK   3
REMARK   3  DATA USED IN REFINEMENT.
REMARK   3   RESOLUTION RANGE HIGH (ANGSTROMS) : 2.041
REMARK   3   RESOLUTION RANGE LOW  (ANGSTROMS) : 54.31
REMARK   3   DATA CUTOFF            (SIGMA(F)) : 0.000
REMARK   3   COMPLETENESS FOR RANGE        (%) : 96.5
REMARK   3   NUMBER OF REFLECTIONS             : 13192
REMARK   3
REMARK   3  FIT TO DATA USED IN REFINEMENT.
REMARK   3   CROSS-VALIDATION METHOD          : THROUGHOUT
REMARK   3   FREE R VALUE TEST SET SELECTION  : RANDOM
REMARK   3   R VALUE     (WORKING + TEST SET) : 0.2235
REMARK   3   R VALUE            (WORKING SET) : 0.2216
REMARK   3   FREE R VALUE                     : 0.2593
REMARK   3   FREE R VALUE TEST SET SIZE   (%) : 4.780
REMARK   3   FREE R VALUE TEST SET COUNT      : 630
REMARK   3   ESTIMATED ERROR OF FREE R VALUE  : NULL
REMARK   3
REMARK   3  FIT IN THE HIGHEST RESOLUTION BIN.
REMARK   3   TOTAL NUMBER OF BINS USED           : 32
REMARK   3   BIN RESOLUTION RANGE HIGH       (A) : 2.04
REMARK   3   BIN RESOLUTION RANGE LOW        (A) : 2.08
REMARK   3   BIN COMPLETENESS (WORKING+TEST) (%) : 55.86
REMARK   3   REFLECTIONS IN BIN   (WORKING+TEST) : 426
REMARK   3   BIN R VALUE          (WORKING+TEST) : 0.4112
REMARK   3   REFLECTIONS IN BIN    (WORKING SET) : 409
REMARK   3   BIN R VALUE           (WORKING SET) : 0.4076
REMARK   3   BIN FREE R VALUE                    : 0.4972
REMARK   3   BIN FREE R VALUE TEST SET SIZE  (%) : 3.99
REMARK   3   BIN FREE R VALUE TEST SET COUNT     : 17
REMARK   3   ESTIMATED ERROR OF BIN FREE R VALUE : NULL
REMARK   3
REMARK   3  NUMBER OF NON-HYDROGEN ATOMS USED IN REFINEMENT.
REMARK   3   PROTEIN ATOMS            : 1476
REMARK   3   NUCLEIC ACID ATOMS       : 0
REMARK   3   HETEROGEN ATOMS          : 34
REMARK   3   SOLVENT ATOMS            : 80
REMARK   3
REMARK   3  B VALUES.
REMARK   3   FROM WILSON PLOT           (A**2) : 49.90
REMARK   3   MEAN B VALUE      (OVERALL, A**2) : 60.74
REMARK   3   OVERALL ANISOTROPIC B VALUE.
REMARK   3    B11 (A**2) : -5.45590
REMARK   3    B22 (A**2) : -5.45590
REMARK   3    B33 (A**2) : 10.91190
REMARK   3    B12 (A**2) : 0.00000
REMARK   3    B13 (A**2) : 0.00000
REMARK   3    B23 (A**2) : 0.00000
REMARK   3
REMARK   3  ESTIMATED COORDINATE ERROR.
REMARK   3   ESD FROM LUZZATI PLOT                    (A) : 0.31
REMARK   3   DPI (BLOW EQ-10) BASED ON R VALUE        (A) : 0.247
REMARK   3   DPI (BLOW EQ-9) BASED ON FREE R VALUE    (A) : 0.194
REMARK   3   DPI (CRUICKSHANK) BASED ON R VALUE       (A) : 0.224
REMARK   3   DPI (CRUICKSHANK) BASED ON FREE R VALUE  (A) : 0.187
REMARK   3
REMARK   3   REFERENCES: BLOW, D. (2002) ACTA CRYST D58, 792-797
REMARK   3               CRUICKSHANK, D.W.J. (1999) ACTA CRYST D55, 583-601
REMARK   3
REMARK   3  CORRELATION COEFFICIENTS.
REMARK   3   CORRELATION COEFFICIENT FO-FC      : 0.947
REMARK   3   CORRELATION COEFFICIENT FO-FC FREE : 0.929
REMARK   3
REMARK   3  X-RAY WEIGHT : 7.18
REMARK   3
REMARK   3  GEOMETRY FUNCTION.                                                  
REMARK   3   RESTRAINT LIBRARIES.                                               
REMARK   3    NUMBER OF LIBRARIES USED :   9                                    
REMARK   3    LIBRARY  1 : protgeo_eh99.dat (V1.6.4.17) 20191001  STANDARD      
REMARK   3                 AMINO ACID DICTIONARY. BONDS AND ANGLES FROM         
REMARK   3                 ENGH AND HUBER EH99. OTHER VALUES BASED ON           
REMARK   3                 PREVIOUS TNT OR TAKEN FROM CCP4. INCLUDES            
REMARK   3                 HYDROGEN ATOMS.                                      
REMARK   3    LIBRARY  2 : exoticaa.dat (V1.3.4.15) 20200327  COLLECTION        
REMARK   3                 OF NON-STANDARD AMINO ACIDS, MAINLY EH91             
REMARK   3                 WITHOUT IDEAL DISTANCE INFO                          
REMARK   3    LIBRARY  3 : nuclgeo.dat (V1.13.4.8) 20190909                     
REMARK   3    LIBRARY  4 : bcorrel.dat (V1.15.10.2) 20190616                    
REMARK   3    LIBRARY  5 : contact.dat (V1.15.12.10) 20191121                   
REMARK   3    LIBRARY  6 : idealdist_contact.dat (V1.3.4.12) 20191001           
REMARK   3                 IDEAL-DISTANCE CONTACT TERM DATA AS USED IN          
REMARK   3                 PROLSQ. VALUES USED HERE ARE BASED ON DATA           
REMARK   3                 HARVESTING OF PDB AS OF 20190109.                    
REMARK   3    LIBRARY  7 : restraints for LIG (unknown) from cif                
REMARK   3                 dictionary ASAP-0020915-001.cif; generated by        
REMARK   3                 GRADE 1.2.21 (Feb 03 2022) from SMILES               
REMARK   3                 O=C(Nc1cc(Cl)cc(C(=O)Nc2ccc3c(c2)CNC3)c1)OCc1ccc     
REMARK   3                 cc1 using MOGUL 1.8.5(274361), CSD as541be,          
REMARK   3                 with quantum mechanics RM1                           
REMARK   3    LIBRARY  8 : restraints for DMS (DIMETHYL SULFOXIDE) from         
REMARK   3                 cif dictionary DMS.cif; buster common-compounds      
REMARK   3                 v 2.0 (19 Dec 2011)                                  
REMARK   3    LIBRARY  9 : assume.dat (V1.9.4.2) 20180705                       
REMARK   3                                                                      
REMARK   3   NUMBER OF GEOMETRIC FUNCTION TERMS DEFINED : 15                    
REMARK   3   TERM                          COUNT    WEIGHT   FUNCTION.          
REMARK   3    BOND LENGTHS              :   1575 ;   2.00 ;  HARMONIC           
REMARK   3    BOND ANGLES               :   2143 ;   2.00 ;  HARMONIC           
REMARK   3    TORSION ANGLES            :    539 ;   2.00 ;  SINUSOIDAL         
REMARK   3    TRIGONAL CARBON PLANES    :   NULL ;   NULL ;  NULL               
REMARK   3    GENERAL PLANES            :    296 ;   5.00 ;  HARMONIC           
REMARK   3    ISOTROPIC THERMAL FACTORS :   1575 ;  10.00 ;  HARMONIC           
REMARK   3    BAD NON-BONDED CONTACTS   :   NULL ;   NULL ;  NULL               
REMARK   3    IMPROPER TORSIONS         :   NULL ;   NULL ;  NULL               
REMARK   3    PSEUDOROTATION ANGLES     :   NULL ;   NULL ;  NULL               
REMARK   3    CHIRAL IMPROPER TORSION   :    195 ;   5.00 ;  SEMIHARMONIC       
REMARK   3    SUM OF OCCUPANCIES        :   NULL ;   NULL ;  NULL               
REMARK   3    UTILITY DISTANCES         :   NULL ;   NULL ;  NULL               
REMARK   3    UTILITY ANGLES            :   NULL ;   NULL ;  NULL               
REMARK   3    UTILITY TORSION           :   NULL ;   NULL ;  NULL               
REMARK   3    IDEAL-DIST CONTACT TERM   :   1182 ;   4.00 ;  SEMIHARMONIC       
REMARK   3                                                                      
REMARK   3   RMS DEVIATIONS FROM IDEAL VALUES.                                  
REMARK   3   BOND LENGTHS                       (A) : 0.008                     
REMARK   3   BOND ANGLES                  (DEGREES) : 0.99                      
REMARK   3   PEPTIDE OMEGA TORSION ANGLES (DEGREES) : 3.39                      
REMARK   3   OTHER TORSION ANGLES         (DEGREES) : 17.54                     
REMARK   3                                                                      
REMARK   3   SIMILARITY.                                                        
REMARK   3    NCS.                                                              
REMARK   3     NCS METHOD: NONE                                                 
REMARK   3    TARGET RESTRAINTS.                                                
REMARK   3     TARGET REPRESENTATION : NONE                                     
REMARK   3     TARGET STRUCTURE : NULL                                          
REMARK   3                                                                      
REMARK   3  TLS DETAILS.                                                        
REMARK   3   NUMBER OF TLS GROUPS  :            2                               
REMARK   3                                                                      
REMARK   3   TLS GROUP :            1                                           
REMARK   3    SET : { A|* }                                                     
REMARK   3    ORIGIN FOR THE GROUP (A):  -13.9909   -1.3241  -19.5400           
REMARK   3    T TENSOR                                                          
REMARK   3     T11:   -0.0389 T22:   -0.1075                                    
REMARK   3     T33:   -0.2898 T12:    0.1895                                    
REMARK   3     T13:    0.1189 T23:    0.1284                                    
REMARK   3    L TENSOR                                                          
REMARK   3     L11:    5.4847 L22:    4.6543                                    
REMARK   3     L33:    4.8535 L12:   -2.6977                                    
REMARK   3     L13:    0.6962 L23:    1.0367                                    
REMARK   3    S TENSOR                                                          
REMARK   3     S11:    0.5596 S12:    0.5623 S13:    0.2244                     
REMARK   3     S21:   -0.6108 S22:   -0.4537 S23:   -0.3087                     
REMARK   3     S31:   -0.1082 S32:    0.5192 S33:   -0.1059                     
REMARK   3                                                                      
REMARK   3   TLS GROUP :            2                                           
REMARK   3    SET : { B|* }                                                     
REMARK   3    ORIGIN FOR THE GROUP (A):  -18.5724    1.2594  -15.7158           
REMARK   3    T TENSOR                                                          
REMARK   3     T11:    0.0839 T22:    0.0060                                    
REMARK   3     T33:   -0.0859 T12:    0.1740                                    
REMARK   3     T13:    0.0337 T23:    0.0395                                    
REMARK   3    L TENSOR                                                          
REMARK   3     L11:    1.6105 L22:    2.0046                                    
REMARK   3     L33:    2.5835 L12:   -1.1195                                    
REMARK   3     L13:    0.5203 L23:   -0.1487                                    
REMARK   3    S TENSOR                                                          
REMARK   3     S11:    0.4052 S12:    0.1736 S13:    0.1381                     
REMARK   3     S21:   -0.1528 S22:   -0.3360 S23:    0.0303                     
REMARK   3     S31:    0.0824 S32:    0.1800 S33:   -0.0692                     
REMARK   3                                                                      
REMARK   3  REFINEMENT NOTES.                                                   
REMARK   3   NUMBER OF REFINEMENT NOTES :   1                                   
REMARK   3   NOTE   1 : IDEAL-DIST CONTACT TERM CONTACT SETUP. ALL ATOMS        
REMARK   3               HAVE CCP4 ATOM TYPE FROM LIBRARY                       
REMARK   3
REMARK   3  OTHER REFINEMENT REMARKS: NULL
REMARK   3
REMARK 290                                                            
REMARK 290 CRYSTALLOGRAPHIC SYMMETRY                                  
REMARK 290 SYMMETRY OPERATORS FOR SPACE GROUP: P 43 2 2               
REMARK 290                                                            
REMARK 290      SYMOP   SYMMETRY                                      
REMARK 290     NNNMMM   OPERATOR                                      
REMARK 290       1555   X,Y,Z                                         
REMARK 290       2555   -X,-Y,1/2+Z                                   
REMARK 290       3555   -Y,X,3/4+Z                                    
REMARK 290       4555   Y,-X,1/4+Z                                    
REMARK 290       5555   -X,Y,-Z                                       
REMARK 290       6555   X,-Y,1/2-Z                                    
REMARK 290       7555   Y,X,1/4-Z                                     
REMARK 290       8555   -Y,-X,3/4-Z                                   
REMARK 290                                                            
REMARK 290     WHERE NNN -> OPERATOR NUMBER                           
REMARK 290           MMM -> TRANSLATION VECTOR                        
REMARK 290                                                            
REMARK 290 CRYSTALLOGRAPHIC SYMMETRY TRANSFORMATIONS                  
REMARK 290 THE FOLLOWING TRANSFORMATIONS OPERATE ON THE ATOM/HETATM   
REMARK 290 RECORDS IN THIS ENTRY TO PRODUCE CRYSTALLOGRAPHICALLY      
REMARK 290 RELATED MOLECULES.                                         
REMARK 290   SMTRY1   1  1.000000  0.000000  0.000000        0.00000
REMARK 290   SMTRY2   1  0.000000  1.000000  0.000000        0.00000
REMARK 290   SMTRY3   1  0.000000  0.000000  1.000000        0.00000
REMARK 290   SMTRY1   2 -1.000000  0.000000  0.000000        0.00000
REMARK 290   SMTRY2   2  0.000000 -1.000000  0.000000        0.00000
REMARK 290   SMTRY3   2  0.000000  0.000000  1.000000      108.62250
REMARK 290   SMTRY1   3  0.000000 -1.000000  0.000000        0.00000
REMARK 290   SMTRY2   3  1.000000  0.000000  0.000000        0.00000
REMARK 290   SMTRY3   3  0.000000  0.000000  1.000000      162.93375
REMARK 290   SMTRY1   4  0.000000  1.000000  0.000000        0.00000
REMARK 290   SMTRY2   4 -1.000000  0.000000  0.000000        0.00000
REMARK 290   SMTRY3   4  0.000000  0.000000  1.000000       54.31125
REMARK 290   SMTRY1   5 -1.000000  0.000000  0.000000        0.00000
REMARK 290   SMTRY2   5  0.000000  1.000000  0.000000        0.00000
REMARK 290   SMTRY3   5  0.000000  0.000000 -1.000000        0.00000
REMARK 290   SMTRY1   6  1.000000  0.000000  0.000000        0.00000
REMARK 290   SMTRY2   6  0.000000 -1.000000  0.000000        0.00000
REMARK 290   SMTRY3   6  0.000000  0.000000 -1.000000      108.62250
REMARK 290   SMTRY1   7  0.000000  1.000000  0.000000        0.00000
REMARK 290   SMTRY2   7  1.000000  0.000000  0.000000        0.00000
REMARK 290   SMTRY3   7  0.000000  0.000000 -1.000000       54.31125
REMARK 290   SMTRY1   8  0.000000 -1.000000  0.000000        0.00000
REMARK 290   SMTRY2   8 -1.000000  0.000000  0.000000        0.00000
REMARK 290   SMTRY3   8  0.000000  0.000000 -1.000000      162.93375
REMARK 290                                                            
REMARK 290 REMARK: NULL                                               
CRYST1   42.579   42.579  217.245  90.00  90.00  90.00 P 43 2 2       


$$$$
XX01ZVNS2B-x3060_ASAP-0020849
  PyMOL3.0          3D                             0

 20 21  0  0  0  0  0  0  0  0999 V2000
   -8.6980    2.4250   -8.4620 N   0  0  0  0  0  0  0  0  0  0  0  0
   -9.8610    2.9480   -9.1680 C   0  0  0  0  0  0  0  0  0  0  0  0
   -7.4090    6.1980  -14.2230 O   0  0  0  0  0  0  0  0  0  0  0  0
  -11.6400    4.6520  -18.5580 Cl  0  0  0  0  0  0  0  0  0  0  0  0
   -9.4580    4.0820  -10.0380 C   0  0  0  0  0  0  0  0  0  0  0  0
   -9.1850    4.8910  -13.6690 N   0  0  0  0  0  0  0  0  0  0  0  0
   -9.1380    5.3140   -9.4860 C   0  0  0  0  0  0  0  0  0  0  0  0
   -6.9390    6.2630  -20.3170 N   0  0  0  0  0  0  0  0  0  0  0  0
   -8.8260    6.3920  -10.2980 C   0  0  0  0  0  0  0  0  0  0  0  0
   -8.8380    6.2570  -11.6760 C   0  0  0  0  0  0  0  0  0  0  0  0
   -9.1510    5.0280  -12.2480 C   0  0  0  0  0  0  0  0  0  0  0  0
   -8.3470    5.4780  -14.5610 C   0  0  0  0  0  0  0  0  0  0  0  0
   -8.6250    5.2250  -16.0090 C   0  0  0  0  0  0  0  0  0  0  0  0
   -9.8940    4.9970  -16.5290 C   0  0  0  0  0  0  0  0  0  0  0  0
  -10.0480    4.8970  -17.8970 C   0  0  0  0  0  0  0  0  0  0  0  0
   -8.9780    5.0060  -18.7590 C   0  0  0  0  0  0  0  0  0  0  0  0
   -7.7070    5.2410  -18.2490 C   0  0  0  0  0  0  0  0  0  0  0  0
   -6.5380    5.4450  -19.1720 C   0  0  0  0  0  0  0  0  0  0  0  0
   -7.5370    5.3360  -16.8710 C   0  0  0  0  0  0  0  0  0  0  0  0
   -9.4470    3.9460  -11.4230 C   0  0  0  0  0  0  0  0  0  0  0  0
  1  2  1  0  0  0  0
  4 15  1  0  0  0  0
  2  5  1  0  0  0  0
  6 11  1  0  0  0  0
  5  7  4  0  0  0  0
  7  9  4  0  0  0  0
  9 10  4  0  0  0  0
 10 11  4  0  0  0  0
 11 20  4  0  0  0  0
  3 12  2  0  0  0  0
  6 12  1  0  0  0  0
 12 13  1  0  0  0  0
 13 14  4  0  0  0  0
 14 15  4  0  0  0  0
 15 16  4  0  0  0  0
 16 17  4  0  0  0  0
 17 18  1  0  0  0  0
 17 19  4  0  0  0  0
  8 18  1  0  0  0  0
 13 19  4  0  0  0  0
  5 20  4  0  0  0  0
M  END
>  <pdb_header>
REMARK --------------------- added by autoBUSTER ---------------------------------START
REMARK run at   = Mon Mar 18 17:51:03 GMT 2024
REMARK     in   = /dls/labxchem/data/lb32627/lb32627-65/processing/analysis/model_building/XX01ZVNS2B-x3060
REMARK     user = kyf22269
REMARK     cmd  = \
REMARK            /dls_sw/apps/GPhL/BUSTER/20211020/autoBUSTER/bin/linux64/refine \
REMARK            -p \
REMARK            /dls/labxchem/data/lb32627/lb32627-65/processing/analysis/model_building/XX01ZVNS2B-x3060/cootOut/Refine_4/in.pdb \
REMARK            -m \
REMARK            /dls/labxchem/data/lb32627/lb32627-65/processing/analysis/model_building/XX01ZVNS2B-x3060/XX01ZVNS2B-x3060.free.mtz \
REMARK            -l \
REMARK            /dls/labxchem/data/lb32627/lb32627-65/processing/analysis/model_building/XX01ZVNS2B-x3060/ASAP-0020849-001.cif \
REMARK            -autoncs -M TLSbasic -d Refine_4
REMARK Files used:
REMARK   PDB              = Refine_4/pdbchk.pdb
REMARK   MTZ              = /dls/labxchem/data/lb32627/lb32627-65/processing/analysis/model_building/XX01ZVNS2B-x3060/XX01ZVNS2B-x3060.free.mtz
REMARK output written to subdirectory = Refine_4
REMARK best refinement for F,SIGF with R/Rfree 0.2463/0.3051
REMARK header records are copied from input PDB file (apart from REMARK 3!)
REMARK --------------------- added by autoBUSTER -----------------------------------END
REMARK --------------------- added by autoBUSTER -------------------------------
REMARK run at   = Mon Mar 11 16:21:29 GMT 2024                                  
REMARK     in   = /dls/labxchem/data/lb32627/lb32627-65/processing/analysis/mode
REMARK     user = kyf22269                                                      
REMARK     cmd  = \                                                             
REMARK            /dls_sw/apps/GPhL/BUSTER/20211020/autoBUSTER/bin/linux64/refin
REMARK            -p \                                                          
REMARK            /dls/labxchem/data/lb32627/lb32627-65/processing/analysis/mode
REMARK            -m \                                                          
REMARK            /dls/labxchem/data/lb32627/lb32627-65/processing/analysis/mode
REMARK            -l \                                                          
REMARK            /dls/labxchem/data/lb32627/lb32627-65/processing/analysis/mode
REMARK            -autoncs -M TLSbasic -d Refine_3                              
REMARK Files used:                                                              
REMARK   PDB              = Refine_3/pdbchk.pdb                                 
REMARK   MTZ              = /dls/labxchem/data/lb32627/lb32627-65/processing/ana
REMARK output written to subdirectory = Refine_3                                
REMARK best refinement for F,SIGF with R/Rfree 0.2464/0.3071                    
REMARK header records are copied from input PDB file (apart from REMARK 3!)     
REMARK --------------------- added by autoBUSTER -------------------------------
REMARK --------------------- added by autoBUSTER -------------------------------
REMARK run at   = Mon Mar 11 16:13:20 GMT 2024                                  
REMARK     in   = /dls/labxchem/data/lb32627/lb32627-65/processing/analysis/mode
REMARK     user = kyf22269                                                      
REMARK     cmd  = \                                                             
REMARK            /dls_sw/apps/GPhL/BUSTER/20211020/autoBUSTER/bin/linux64/refin
REMARK            -p \                                                          
REMARK            /dls/labxchem/data/lb32627/lb32627-65/processing/analysis/mode
REMARK            -m \                                                          
REMARK            /dls/labxchem/data/lb32627/lb32627-65/processing/analysis/mode
REMARK            -l \                                                          
REMARK            /dls/labxchem/data/lb32627/lb32627-65/processing/analysis/mode
REMARK            -autoncs -M TLSbasic -d Refine_2                              
REMARK Files used:                                                              
REMARK   PDB              = Refine_2/pdbchk.pdb                                 
REMARK   MTZ              = /dls/labxchem/data/lb32627/lb32627-65/processing/ana
REMARK output written to subdirectory = Refine_2                                
REMARK best refinement for F,SIGF with R/Rfree 0.2467/0.3078                    
REMARK header records are copied from input PDB file (apart from REMARK 3!)     
REMARK --------------------- added by autoBUSTER -------------------------------
REMARK --------------------- added by autoBUSTER -------------------------------
REMARK run at   = Mon Mar 11 15:56:53 GMT 2024                                  
REMARK     in   = /dls/labxchem/data/lb32627/lb32627-65/processing/analysis/mode
REMARK     user = kyf22269                                                      
REMARK     cmd  = \                                                             
REMARK            /dls_sw/apps/GPhL/BUSTER/20211020/autoBUSTER/bin/linux64/refin
REMARK            -p \                                                          
REMARK            /dls/labxchem/data/lb32627/lb32627-65/processing/analysis/mode
REMARK            -m \                                                          
REMARK            /dls/labxchem/data/lb32627/lb32627-65/processing/analysis/mode
REMARK            -l \                                                          
REMARK            /dls/labxchem/data/lb32627/lb32627-65/processing/analysis/mode
REMARK            -autoncs -M TLSbasic -d Refine_1                              
REMARK Files used:                                                              
REMARK   PDB              = Refine_1/pdbchk.pdb                                 
REMARK   MTZ              = /dls/labxchem/data/lb32627/lb32627-65/processing/ana
REMARK output written to subdirectory = Refine_1                                
REMARK best refinement for F,SIGF with R/Rfree 0.2531/0.3108                    
REMARK header records are copied from input PDB file (apart from REMARK 3!)     
REMARK --------------------- added by autoBUSTER -------------------------------
HEADER    ----                                    23-FEB-23                     
TITLE     ---                                                                   
COMPND    ---                                                                   
EXPDTA    X-RAY DIFFRACTION
REMARK   2                                                            
REMARK   2 RESOLUTION.    2.16 ANGSTROMS.
REMARK   3
REMARK   3 REFINEMENT.
REMARK   3   PROGRAM     : BUSTER 2.10.4 (20-OCT-2021)
REMARK   3   AUTHORS     : BRICOGNE,BLANC,BRANDL,FLENSBURG,KELLER,
REMARK   3               : PACIOREK,ROVERSI,SHARFF,SMART,VONRHEIN,WOMACK;
REMARK   3               : MATTHEWS,TEN EYCK,TRONRUD
REMARK   3
REMARK   3  DATA USED IN REFINEMENT.
REMARK   3   RESOLUTION RANGE HIGH (ANGSTROMS) : 2.162
REMARK   3   RESOLUTION RANGE LOW  (ANGSTROMS) : 54.31
REMARK   3   DATA CUTOFF            (SIGMA(F)) : 0.000
REMARK   3   COMPLETENESS FOR RANGE        (%) : 95.7
REMARK   3   NUMBER OF REFLECTIONS             : 11050
REMARK   3
REMARK   3  FIT TO DATA USED IN REFINEMENT.
REMARK   3   CROSS-VALIDATION METHOD          : THROUGHOUT
REMARK   3   FREE R VALUE TEST SET SELECTION  : RANDOM
REMARK   3   R VALUE     (WORKING + TEST SET) : 0.2492
REMARK   3   R VALUE            (WORKING SET) : 0.2463
REMARK   3   FREE R VALUE                     : 0.3051
REMARK   3   FREE R VALUE TEST SET SIZE   (%) : 4.790
REMARK   3   FREE R VALUE TEST SET COUNT      : 529
REMARK   3   ESTIMATED ERROR OF FREE R VALUE  : NULL
REMARK   3
REMARK   3  FIT IN THE HIGHEST RESOLUTION BIN.
REMARK   3   TOTAL NUMBER OF BINS USED           : 27
REMARK   3   BIN RESOLUTION RANGE HIGH       (A) : 2.16
REMARK   3   BIN RESOLUTION RANGE LOW        (A) : 2.21
REMARK   3   BIN COMPLETENESS (WORKING+TEST) (%) : 54.46
REMARK   3   REFLECTIONS IN BIN   (WORKING+TEST) : 425
REMARK   3   BIN R VALUE          (WORKING+TEST) : 0.4329
REMARK   3   REFLECTIONS IN BIN    (WORKING SET) : 409
REMARK   3   BIN R VALUE           (WORKING SET) : 0.4301
REMARK   3   BIN FREE R VALUE                    : 0.5040
REMARK   3   BIN FREE R VALUE TEST SET SIZE  (%) : 3.76
REMARK   3   BIN FREE R VALUE TEST SET COUNT     : 16
REMARK   3   ESTIMATED ERROR OF BIN FREE R VALUE : NULL
REMARK   3
REMARK   3  NUMBER OF NON-HYDROGEN ATOMS USED IN REFINEMENT.
REMARK   3   PROTEIN ATOMS            : 1476
REMARK   3   NUCLEIC ACID ATOMS       : 0
REMARK   3   HETEROGEN ATOMS          : 29
REMARK   3   SOLVENT ATOMS            : 100
REMARK   3
REMARK   3  B VALUES.
REMARK   3   FROM WILSON PLOT           (A**2) : 18.58
REMARK   3   MEAN B VALUE      (OVERALL, A**2) : 31.20
REMARK   3   OVERALL ANISOTROPIC B VALUE.
REMARK   3    B11 (A**2) : -6.43320
REMARK   3    B22 (A**2) : -6.43320
REMARK   3    B33 (A**2) : 12.86630
REMARK   3    B12 (A**2) : 0.00000
REMARK   3    B13 (A**2) : 0.00000
REMARK   3    B23 (A**2) : 0.00000
REMARK   3
REMARK   3  ESTIMATED COORDINATE ERROR.
REMARK   3   ESD FROM LUZZATI PLOT                    (A) : 0.39
REMARK   3   DPI (BLOW EQ-10) BASED ON R VALUE        (A) : 0.384
REMARK   3   DPI (BLOW EQ-9) BASED ON FREE R VALUE    (A) : 0.270
REMARK   3   DPI (CRUICKSHANK) BASED ON R VALUE       (A) : 0.325
REMARK   3   DPI (CRUICKSHANK) BASED ON FREE R VALUE  (A) : 0.257
REMARK   3
REMARK   3   REFERENCES: BLOW, D. (2002) ACTA CRYST D58, 792-797
REMARK   3               CRUICKSHANK, D.W.J. (1999) ACTA CRYST D55, 583-601
REMARK   3
REMARK   3  CORRELATION COEFFICIENTS.
REMARK   3   CORRELATION COEFFICIENT FO-FC      : 0.889
REMARK   3   CORRELATION COEFFICIENT FO-FC FREE : 0.852
REMARK   3
REMARK   3  X-RAY WEIGHT : 8.35
REMARK   3
REMARK   3  GEOMETRY FUNCTION.                                                  
REMARK   3   RESTRAINT LIBRARIES.                                               
REMARK   3    NUMBER OF LIBRARIES USED :  10                                    
REMARK   3    LIBRARY  1 : protgeo_eh99.dat (V1.6.4.17) 20191001  STANDARD      
REMARK   3                 AMINO ACID DICTIONARY. BONDS AND ANGLES FROM         
REMARK   3                 ENGH AND HUBER EH99. OTHER VALUES BASED ON           
REMARK   3                 PREVIOUS TNT OR TAKEN FROM CCP4. INCLUDES            
REMARK   3                 HYDROGEN ATOMS.                                      
REMARK   3    LIBRARY  2 : exoticaa.dat (V1.3.4.15) 20200327  COLLECTION        
REMARK   3                 OF NON-STANDARD AMINO ACIDS, MAINLY EH91             
REMARK   3                 WITHOUT IDEAL DISTANCE INFO                          
REMARK   3    LIBRARY  3 : nuclgeo.dat (V1.13.4.8) 20190909                     
REMARK   3    LIBRARY  4 : bcorrel.dat (V1.15.10.2) 20190616                    
REMARK   3    LIBRARY  5 : contact.dat (V1.15.12.10) 20191121                   
REMARK   3    LIBRARY  6 : idealdist_contact.dat (V1.3.4.12) 20191001           
REMARK   3                 IDEAL-DISTANCE CONTACT TERM DATA AS USED IN          
REMARK   3                 PROLSQ. VALUES USED HERE ARE BASED ON DATA           
REMARK   3                 HARVESTING OF PDB AS OF 20190109.                    
REMARK   3    LIBRARY  7 : restraints for LIG (unknown) from cif                
REMARK   3                 dictionary ASAP-0020849-001.cif; generated by        
REMARK   3                 GRADE 1.2.21 (Feb 03 2022) from SMILES               
REMARK   3                 NCc1cccc(NC(=O)c2cc(Cl)cc(CN)c2)c1 using MOGUL       
REMARK   3                 1.8.5(274361), CSD as541be, with quantum             
REMARK   3                 mechanics RM1                                        
REMARK   3    LIBRARY  8 : restraints for DMS (DIMETHYL SULFOXIDE) from         
REMARK   3                 cif dictionary DMS.cif; buster common-compounds      
REMARK   3                 v 2.0 (19 Dec 2011)                                  
REMARK   3    LIBRARY  9 : restraints for SO4 (SULFATE ION) from cif            
REMARK   3                 dictionary SO4.cif; buster common-compounds v        
REMARK   3                 2.0 (19 Dec 2011)                                    
REMARK   3    LIBRARY 10 : assume.dat (V1.9.4.2) 20180705                       
REMARK   3                                                                      
REMARK   3   NUMBER OF GEOMETRIC FUNCTION TERMS DEFINED : 15                    
REMARK   3   TERM                          COUNT    WEIGHT   FUNCTION.          
REMARK   3    BOND LENGTHS              :   1571 ;   2.00 ;  HARMONIC           
REMARK   3    BOND ANGLES               :   2139 ;   2.00 ;  HARMONIC           
REMARK   3    TORSION ANGLES            :    535 ;   2.00 ;  SINUSOIDAL         
REMARK   3    TRIGONAL CARBON PLANES    :   NULL ;   NULL ;  NULL               
REMARK   3    GENERAL PLANES            :    287 ;   5.00 ;  HARMONIC           
REMARK   3    ISOTROPIC THERMAL FACTORS :   1571 ;  10.00 ;  HARMONIC           
REMARK   3    BAD NON-BONDED CONTACTS   :   NULL ;   NULL ;  NULL               
REMARK   3    IMPROPER TORSIONS         :   NULL ;   NULL ;  NULL               
REMARK   3    PSEUDOROTATION ANGLES     :   NULL ;   NULL ;  NULL               
REMARK   3    CHIRAL IMPROPER TORSION   :    196 ;   5.00 ;  SEMIHARMONIC       
REMARK   3    SUM OF OCCUPANCIES        :   NULL ;   NULL ;  NULL               
REMARK   3    UTILITY DISTANCES         :   NULL ;   NULL ;  NULL               
REMARK   3    UTILITY ANGLES            :   NULL ;   NULL ;  NULL               
REMARK   3    UTILITY TORSION           :   NULL ;   NULL ;  NULL               
REMARK   3    IDEAL-DIST CONTACT TERM   :   1209 ;   4.00 ;  SEMIHARMONIC       
REMARK   3                                                                      
REMARK   3   RMS DEVIATIONS FROM IDEAL VALUES.                                  
REMARK   3   BOND LENGTHS                       (A) : 0.008                     
REMARK   3   BOND ANGLES                  (DEGREES) : 1.03                      
REMARK   3   PEPTIDE OMEGA TORSION ANGLES (DEGREES) : 3.24                      
REMARK   3   OTHER TORSION ANGLES         (DEGREES) : 17.66                     
REMARK   3                                                                      
REMARK   3   SIMILARITY.                                                        
REMARK   3    NCS.                                                              
REMARK   3     NCS METHOD: NONE                                                 
REMARK   3    TARGET RESTRAINTS.                                                
REMARK   3     TARGET REPRESENTATION : NONE                                     
REMARK   3     TARGET STRUCTURE : NULL                                          
REMARK   3                                                                      
REMARK   3  TLS DETAILS.                                                        
REMARK   3   NUMBER OF TLS GROUPS  :            2                               
REMARK   3                                                                      
REMARK   3   TLS GROUP :            1                                           
REMARK   3    SET : { A|* }                                                     
REMARK   3    ORIGIN FOR THE GROUP (A):  -14.0392   -1.4345  -19.4978           
REMARK   3    T TENSOR                                                          
REMARK   3     T11:   -0.0402 T22:   -0.0643                                    
REMARK   3     T33:   -0.3397 T12:    0.1419                                    
REMARK   3     T13:    0.1214 T23:    0.0676                                    
REMARK   3    L TENSOR                                                          
REMARK   3     L11:    3.9234 L22:    4.8044                                    
REMARK   3     L33:    4.1450 L12:   -1.7530                                    
REMARK   3     L13:    0.8772 L23:    0.8853                                    
REMARK   3    S TENSOR                                                          
REMARK   3     S11:    0.2366 S12:    0.3381 S13:   -0.0940                     
REMARK   3     S21:   -0.3965 S22:   -0.1165 S23:   -0.2280                     
REMARK   3     S31:   -0.4302 S32:    0.5012 S33:   -0.1201                     
REMARK   3                                                                      
REMARK   3   TLS GROUP :            2                                           
REMARK   3    SET : { B|* }                                                     
REMARK   3    ORIGIN FOR THE GROUP (A):  -18.6396    1.1872  -15.7241           
REMARK   3    T TENSOR                                                          
REMARK   3     T11:    0.1163 T22:   -0.0221                                    
REMARK   3     T33:   -0.1178 T12:    0.1442                                    
REMARK   3     T13:    0.0232 T23:    0.0405                                    
REMARK   3    L TENSOR                                                          
REMARK   3     L11:    1.1527 L22:    1.4438                                    
REMARK   3     L33:    3.2274 L12:   -0.5963                                    
REMARK   3     L13:    0.1697 L23:    0.1164                                    
REMARK   3    S TENSOR                                                          
REMARK   3     S11:    0.2302 S12:    0.0657 S13:    0.0194                     
REMARK   3     S21:   -0.1339 S22:   -0.2344 S23:    0.0892                     
REMARK   3     S31:   -0.0676 S32:    0.1650 S33:    0.0041                     
REMARK   3                                                                      
REMARK   3  REFINEMENT NOTES.                                                   
REMARK   3   NUMBER OF REFINEMENT NOTES :   1                                   
REMARK   3   NOTE   1 : IDEAL-DIST CONTACT TERM CONTACT SETUP. ALL ATOMS        
REMARK   3               HAVE CCP4 ATOM TYPE FROM LIBRARY                       
REMARK   3
REMARK   3  OTHER REFINEMENT REMARKS: NULL
REMARK   3
REMARK 290                                                            
REMARK 290 CRYSTALLOGRAPHIC SYMMETRY                                  
REMARK 290 SYMMETRY OPERATORS FOR SPACE GROUP: P 43 2 2               
REMARK 290                                                            
REMARK 290      SYMOP   SYMMETRY                                      
REMARK 290     NNNMMM   OPERATOR                                      
REMARK 290       1555   X,Y,Z                                         
REMARK 290       2555   -X,-Y,1/2+Z                                   
REMARK 290       3555   -Y,X,3/4+Z                                    
REMARK 290       4555   Y,-X,1/4+Z                                    
REMARK 290       5555   -X,Y,-Z                                       
REMARK 290       6555   X,-Y,1/2-Z                                    
REMARK 290       7555   Y,X,1/4-Z                                     
REMARK 290       8555   -Y,-X,3/4-Z                                   
REMARK 290                                                            
REMARK 290     WHERE NNN -> OPERATOR NUMBER                           
REMARK 290           MMM -> TRANSLATION VECTOR                        
REMARK 290                                                            
REMARK 290 CRYSTALLOGRAPHIC SYMMETRY TRANSFORMATIONS                  
REMARK 290 THE FOLLOWING TRANSFORMATIONS OPERATE ON THE ATOM/HETATM   
REMARK 290 RECORDS IN THIS ENTRY TO PRODUCE CRYSTALLOGRAPHICALLY      
REMARK 290 RELATED MOLECULES.                                         
REMARK 290   SMTRY1   1  1.000000  0.000000  0.000000        0.00000
REMARK 290   SMTRY2   1  0.000000  1.000000  0.000000        0.00000
REMARK 290   SMTRY3   1  0.000000  0.000000  1.000000        0.00000
REMARK 290   SMTRY1   2 -1.000000  0.000000  0.000000        0.00000
REMARK 290   SMTRY2   2  0.000000 -1.000000  0.000000        0.00000
REMARK 290   SMTRY3   2  0.000000  0.000000  1.000000      108.62000
REMARK 290   SMTRY1   3  0.000000 -1.000000  0.000000        0.00000
REMARK 290   SMTRY2   3  1.000000  0.000000  0.000000        0.00000
REMARK 290   SMTRY3   3  0.000000  0.000000  1.000000      162.93000
REMARK 290   SMTRY1   4  0.000000  1.000000  0.000000        0.00000
REMARK 290   SMTRY2   4 -1.000000  0.000000  0.000000        0.00000
REMARK 290   SMTRY3   4  0.000000  0.000000  1.000000       54.31000
REMARK 290   SMTRY1   5 -1.000000  0.000000  0.000000        0.00000
REMARK 290   SMTRY2   5  0.000000  1.000000  0.000000        0.00000
REMARK 290   SMTRY3   5  0.000000  0.000000 -1.000000        0.00000
REMARK 290   SMTRY1   6  1.000000  0.000000  0.000000        0.00000
REMARK 290   SMTRY2   6  0.000000 -1.000000  0.000000        0.00000
REMARK 290   SMTRY3   6  0.000000  0.000000 -1.000000      108.62000
REMARK 290   SMTRY1   7  0.000000  1.000000  0.000000        0.00000
REMARK 290   SMTRY2   7  1.000000  0.000000  0.000000        0.00000
REMARK 290   SMTRY3   7  0.000000  0.000000 -1.000000       54.31000
REMARK 290   SMTRY1   8  0.000000 -1.000000  0.000000        0.00000
REMARK 290   SMTRY2   8 -1.000000  0.000000  0.000000        0.00000
REMARK 290   SMTRY3   8  0.000000  0.000000 -1.000000      162.93000
REMARK 290                                                            
REMARK 290 REMARK: NULL                                               
CRYST1   42.552   42.552  217.240  90.00  90.00  90.00 P 43 2 2       


$$$$
XX01ZVNS2B-x3093_ASAP-0022474
  PyMOL3.0          3D                             0

 26 29  0  0  0  0  0  0  0  0999 V2000
   -8.3640    2.2510   -8.5610 N   0  0  0  0  0  0  0  0  0  0  0  0
   -9.4750    3.0680   -9.0300 C   0  0  0  0  0  0  0  0  0  0  0  0
   -6.9510    6.3890  -14.2420 O   0  0  0  0  0  0  0  0  0  0  0  0
   -8.9470    4.1830   -9.9280 C   0  0  0  0  0  0  0  0  0  0  0  0
   -8.5810    4.9230  -13.5600 N   0  0  0  0  0  0  0  0  0  0  0  0
   -8.5660    5.4030   -9.3860 C   0  0  0  0  0  0  0  0  0  0  0  0
   -7.7330    5.1260  -18.3420 N   0  0  0  0  0  0  0  0  0  0  0  0
   -8.1890    6.4540  -10.2050 C   0  0  0  0  0  0  0  0  0  0  0  0
   -3.7250    7.2870  -18.0550 N   0  0  0  0  0  0  0  0  0  0  0  0
   -8.1800    6.3010  -11.5820 C   0  0  0  0  0  0  0  0  0  0  0  0
   -6.0320    5.8380  -17.0840 N   0  0  0  0  0  0  0  0  0  0  0  0
   -8.5420    5.0810  -12.1430 C   0  0  0  0  0  0  0  0  0  0  0  0
   -7.8350    5.5760  -14.5140 C   0  0  0  0  0  0  0  0  0  0  0  0
   -8.1950    5.2760  -15.9640 C   0  0  0  0  0  0  0  0  0  0  0  0
   -9.4650    4.8210  -16.2460 C   0  0  0  0  0  0  0  0  0  0  0  0
   -9.8740    4.5260  -17.5690 C   0  0  0  0  0  0  0  0  0  0  0  0
   -9.0150    4.6700  -18.5970 C   0  0  0  0  0  0  0  0  0  0  0  0
   -6.6700    5.3270  -19.1930 C   0  0  0  0  0  0  0  0  0  0  0  0
   -5.6400    5.7590  -18.4100 C   0  0  0  0  0  0  0  0  0  0  0  0
   -4.2380    6.1310  -18.7900 C   0  0  0  0  0  0  0  0  0  0  0  0
   -2.3330    7.6070  -18.3880 C   0  0  0  0  0  0  0  0  0  0  0  0
   -2.1440    9.0160  -17.8530 C   0  0  0  0  0  0  0  0  0  0  0  0
   -3.5410    9.6200  -17.8180 C   0  0  0  0  0  0  0  0  0  0  0  0
   -4.4540    8.5270  -18.3470 C   0  0  0  0  0  0  0  0  0  0  0  0
   -7.2930    5.4450  -17.0670 C   0  0  0  0  0  0  0  0  0  0  0  0
   -8.9130    4.0270  -11.3110 C   0  0  0  0  0  0  0  0  0  0  0  0
  1  2  1  0  0  0  0
  3 13  2  0  0  0  0
  2  4  1  0  0  0  0
  5 12  1  0  0  0  0
  4  6  4  0  0  0  0
  7 17  4  0  0  0  0
  7 18  4  0  0  0  0
  6  8  4  0  0  0  0
  9 21  1  0  0  0  0
  9 24  1  0  0  0  0
  8 10  4  0  0  0  0
 11 19  4  0  0  0  0
 10 12  4  0  0  0  0
 12 26  4  0  0  0  0
  5 13  1  0  0  0  0
 13 14  1  0  0  0  0
 14 15  4  0  0  0  0
 14 25  4  0  0  0  0
 15 16  4  0  0  0  0
 16 17  4  0  0  0  0
 18 19  4  0  0  0  0
 19 20  1  0  0  0  0
  9 20  1  0  0  0  0
 21 22  1  0  0  0  0
 22 23  1  0  0  0  0
 23 24  1  0  0  0  0
  7 25  4  0  0  0  0
 11 25  4  0  0  0  0
  4 26  4  0  0  0  0
M  END
>  <pdb_header>
REMARK --------------------- added by autoBUSTER ---------------------------------START
REMARK run at   = Wed May  8 12:05:55 BST 2024
REMARK     in   = /dls/labxchem/data/lb32627/lb32627-65/processing/analysis/model_building/XX01ZVNS2B-x3093
REMARK     user = kyf22269
REMARK     cmd  = \
REMARK            /dls_sw/apps/GPhL/BUSTER/20211020/autoBUSTER/bin/linux64/refine \
REMARK            -p \
REMARK            /dls/labxchem/data/lb32627/lb32627-65/processing/analysis/model_building/XX01ZVNS2B-x3093/cootOut/Refine_2/in.pdb \
REMARK            -m \
REMARK            /dls/labxchem/data/lb32627/lb32627-65/processing/analysis/model_building/XX01ZVNS2B-x3093/XX01ZVNS2B-x3093.free.mtz \
REMARK            -l \
REMARK            /dls/labxchem/data/lb32627/lb32627-65/processing/analysis/model_building/XX01ZVNS2B-x3093/ASAP-0022474-001.cif \
REMARK            -autoncs -M TLSbasic -d Refine_2
REMARK Files used:
REMARK   PDB              = Refine_2/pdbchk.pdb
REMARK   MTZ              = /dls/labxchem/data/lb32627/lb32627-65/processing/analysis/model_building/XX01ZVNS2B-x3093/XX01ZVNS2B-x3093.free.mtz
REMARK output written to subdirectory = Refine_2
REMARK best refinement for F,SIGF with R/Rfree 0.2372/0.2728
REMARK header records are copied from input PDB file (apart from REMARK 3!)
REMARK --------------------- added by autoBUSTER -----------------------------------END
REMARK --------------------- added by autoBUSTER -------------------------------
REMARK run at   = Tue May  7 18:07:17 BST 2024                                  
REMARK     in   = /dls/labxchem/data/lb32627/lb32627-65/processing/analysis/mode
REMARK     user = kyf22269                                                      
REMARK     cmd  = \                                                             
REMARK            /dls_sw/apps/GPhL/BUSTER/20211020/autoBUSTER/bin/linux64/refin
REMARK            -p \                                                          
REMARK            /dls/labxchem/data/lb32627/lb32627-65/processing/analysis/mode
REMARK            -m \                                                          
REMARK            /dls/labxchem/data/lb32627/lb32627-65/processing/analysis/mode
REMARK            -l \                                                          
REMARK            /dls/labxchem/data/lb32627/lb32627-65/processing/analysis/mode
REMARK            -autoncs -M TLSbasic -d Refine_1                              
REMARK Files used:                                                              
REMARK   PDB              = Refine_1/pdbchk.pdb                                 
REMARK   MTZ              = /dls/labxchem/data/lb32627/lb32627-65/processing/ana
REMARK output written to subdirectory = Refine_1                                
REMARK best refinement for F,SIGF with R/Rfree 0.2452/0.2819                    
REMARK header records are copied from input PDB file (apart from REMARK 3!)     
REMARK --------------------- added by autoBUSTER -------------------------------
HEADER    ----                                    23-FEB-23                     
TITLE     ---                                                                   
COMPND    ---                                                                   
EXPDTA    X-RAY DIFFRACTION
REMARK   2                                                            
REMARK   2 RESOLUTION.    1.72 ANGSTROMS.
REMARK   3
REMARK   3 REFINEMENT.
REMARK   3   PROGRAM     : BUSTER 2.10.4 (20-OCT-2021)
REMARK   3   AUTHORS     : BRICOGNE,BLANC,BRANDL,FLENSBURG,KELLER,
REMARK   3               : PACIOREK,ROVERSI,SHARFF,SMART,VONRHEIN,WOMACK;
REMARK   3               : MATTHEWS,TEN EYCK,TRONRUD
REMARK   3
REMARK   3  DATA USED IN REFINEMENT.
REMARK   3   RESOLUTION RANGE HIGH (ANGSTROMS) : 1.721
REMARK   3   RESOLUTION RANGE LOW  (ANGSTROMS) : 54.47
REMARK   3   DATA CUTOFF            (SIGMA(F)) : 0.000
REMARK   3   COMPLETENESS FOR RANGE        (%) : 96.1
REMARK   3   NUMBER OF REFLECTIONS             : 20693
REMARK   3
REMARK   3  FIT TO DATA USED IN REFINEMENT.
REMARK   3   CROSS-VALIDATION METHOD          : THROUGHOUT
REMARK   3   FREE R VALUE TEST SET SELECTION  : RANDOM
REMARK   3   R VALUE     (WORKING + TEST SET) : 0.2390
REMARK   3   R VALUE            (WORKING SET) : 0.2372
REMARK   3   FREE R VALUE                     : 0.2728
REMARK   3   FREE R VALUE TEST SET SIZE   (%) : 5.010
REMARK   3   FREE R VALUE TEST SET COUNT      : 1036
REMARK   3   ESTIMATED ERROR OF FREE R VALUE  : NULL
REMARK   3
REMARK   3  FIT IN THE HIGHEST RESOLUTION BIN.
REMARK   3   TOTAL NUMBER OF BINS USED           : 51
REMARK   3   BIN RESOLUTION RANGE HIGH       (A) : 1.72
REMARK   3   BIN RESOLUTION RANGE LOW        (A) : 1.74
REMARK   3   BIN COMPLETENESS (WORKING+TEST) (%) : 54.71
REMARK   3   REFLECTIONS IN BIN   (WORKING+TEST) : 414
REMARK   3   BIN R VALUE          (WORKING+TEST) : 0.5421
REMARK   3   REFLECTIONS IN BIN    (WORKING SET) : 392
REMARK   3   BIN R VALUE           (WORKING SET) : 0.5429
REMARK   3   BIN FREE R VALUE                    : 0.5268
REMARK   3   BIN FREE R VALUE TEST SET SIZE  (%) : 5.31
REMARK   3   BIN FREE R VALUE TEST SET COUNT     : 22
REMARK   3   ESTIMATED ERROR OF BIN FREE R VALUE : NULL
REMARK   3
REMARK   3  NUMBER OF NON-HYDROGEN ATOMS USED IN REFINEMENT.
REMARK   3   PROTEIN ATOMS            : 1476
REMARK   3   NUCLEIC ACID ATOMS       : 0
REMARK   3   HETEROGEN ATOMS          : 30
REMARK   3   SOLVENT ATOMS            : 87
REMARK   3
REMARK   3  B VALUES.
REMARK   3   FROM WILSON PLOT           (A**2) : 37.04
REMARK   3   MEAN B VALUE      (OVERALL, A**2) : 46.62
REMARK   3   OVERALL ANISOTROPIC B VALUE.
REMARK   3    B11 (A**2) : -2.26290
REMARK   3    B22 (A**2) : -2.26290
REMARK   3    B33 (A**2) : 4.52590
REMARK   3    B12 (A**2) : 0.00000
REMARK   3    B13 (A**2) : 0.00000
REMARK   3    B23 (A**2) : 0.00000
REMARK   3
REMARK   3  ESTIMATED COORDINATE ERROR.
REMARK   3   ESD FROM LUZZATI PLOT                    (A) : 0.34
REMARK   3   DPI (BLOW EQ-10) BASED ON R VALUE        (A) : 0.148
REMARK   3   DPI (BLOW EQ-9) BASED ON FREE R VALUE    (A) : 0.138
REMARK   3   DPI (CRUICKSHANK) BASED ON R VALUE       (A) : 0.140
REMARK   3   DPI (CRUICKSHANK) BASED ON FREE R VALUE  (A) : 0.133
REMARK   3
REMARK   3   REFERENCES: BLOW, D. (2002) ACTA CRYST D58, 792-797
REMARK   3               CRUICKSHANK, D.W.J. (1999) ACTA CRYST D55, 583-601
REMARK   3
REMARK   3  CORRELATION COEFFICIENTS.
REMARK   3   CORRELATION COEFFICIENT FO-FC      : 0.952
REMARK   3   CORRELATION COEFFICIENT FO-FC FREE : 0.944
REMARK   3
REMARK   3  X-RAY WEIGHT : 5.90
REMARK   3
REMARK   3  GEOMETRY FUNCTION.                                                  
REMARK   3   RESTRAINT LIBRARIES.                                               
REMARK   3    NUMBER OF LIBRARIES USED :   9                                    
REMARK   3    LIBRARY  1 : protgeo_eh99.dat (V1.6.4.17) 20191001  STANDARD      
REMARK   3                 AMINO ACID DICTIONARY. BONDS AND ANGLES FROM         
REMARK   3                 ENGH AND HUBER EH99. OTHER VALUES BASED ON           
REMARK   3                 PREVIOUS TNT OR TAKEN FROM CCP4. INCLUDES            
REMARK   3                 HYDROGEN ATOMS.                                      
REMARK   3    LIBRARY  2 : exoticaa.dat (V1.3.4.15) 20200327  COLLECTION        
REMARK   3                 OF NON-STANDARD AMINO ACIDS, MAINLY EH91             
REMARK   3                 WITHOUT IDEAL DISTANCE INFO                          
REMARK   3    LIBRARY  3 : nuclgeo.dat (V1.13.4.8) 20190909                     
REMARK   3    LIBRARY  4 : bcorrel.dat (V1.15.10.2) 20190616                    
REMARK   3    LIBRARY  5 : contact.dat (V1.15.12.10) 20191121                   
REMARK   3    LIBRARY  6 : idealdist_contact.dat (V1.3.4.12) 20191001           
REMARK   3                 IDEAL-DISTANCE CONTACT TERM DATA AS USED IN          
REMARK   3                 PROLSQ. VALUES USED HERE ARE BASED ON DATA           
REMARK   3                 HARVESTING OF PDB AS OF 20190109.                    
REMARK   3    LIBRARY  7 : restraints for LIG (unknown) from cif                
REMARK   3                 dictionary ASAP-0022474-001.cif; generated by        
REMARK   3                 GRADE 1.2.21 (Feb 03 2022) from SMILES               
REMARK   3                 NCc1cccc(NC(=O)c2cccn3cc(CN4CCCC4)nc23)c1 using      
REMARK   3                 MOGUL 1.8.5(274361), CSD as541be, with quantum       
REMARK   3                 mechanics RM1                                        
REMARK   3    LIBRARY  8 : restraints for DMS (DIMETHYL SULFOXIDE) from         
REMARK   3                 cif dictionary DMS.cif; buster common-compounds      
REMARK   3                 v 2.0 (19 Dec 2011)                                  
REMARK   3    LIBRARY  9 : assume.dat (V1.9.4.2) 20180705                       
REMARK   3                                                                      
REMARK   3   NUMBER OF GEOMETRIC FUNCTION TERMS DEFINED : 15                    
REMARK   3   TERM                          COUNT    WEIGHT   FUNCTION.          
REMARK   3    BOND LENGTHS              :   1575 ;   2.00 ;  HARMONIC           
REMARK   3    BOND ANGLES               :   2145 ;   2.00 ;  HARMONIC           
REMARK   3    TORSION ANGLES            :    541 ;   2.00 ;  SINUSOIDAL         
REMARK   3    TRIGONAL CARBON PLANES    :   NULL ;   NULL ;  NULL               
REMARK   3    GENERAL PLANES            :    293 ;   5.00 ;  HARMONIC           
REMARK   3    ISOTROPIC THERMAL FACTORS :   1575 ;  10.00 ;  HARMONIC           
REMARK   3    BAD NON-BONDED CONTACTS   :   NULL ;   NULL ;  NULL               
REMARK   3    IMPROPER TORSIONS         :   NULL ;   NULL ;  NULL               
REMARK   3    PSEUDOROTATION ANGLES     :   NULL ;   NULL ;  NULL               
REMARK   3    CHIRAL IMPROPER TORSION   :    196 ;   5.00 ;  SEMIHARMONIC       
REMARK   3    SUM OF OCCUPANCIES        :   NULL ;   NULL ;  NULL               
REMARK   3    UTILITY DISTANCES         :   NULL ;   NULL ;  NULL               
REMARK   3    UTILITY ANGLES            :   NULL ;   NULL ;  NULL               
REMARK   3    UTILITY TORSION           :   NULL ;   NULL ;  NULL               
REMARK   3    IDEAL-DIST CONTACT TERM   :   1211 ;   4.00 ;  SEMIHARMONIC       
REMARK   3                                                                      
REMARK   3   RMS DEVIATIONS FROM IDEAL VALUES.                                  
REMARK   3   BOND LENGTHS                       (A) : 0.008                     
REMARK   3   BOND ANGLES                  (DEGREES) : 0.98                      
REMARK   3   PEPTIDE OMEGA TORSION ANGLES (DEGREES) : 3.36                      
REMARK   3   OTHER TORSION ANGLES         (DEGREES) : 16.85                     
REMARK   3                                                                      
REMARK   3   SIMILARITY.                                                        
REMARK   3    NCS.                                                              
REMARK   3     NCS METHOD: NONE                                                 
REMARK   3    TARGET RESTRAINTS.                                                
REMARK   3     TARGET REPRESENTATION : NONE                                     
REMARK   3     TARGET STRUCTURE : NULL                                          
REMARK   3                                                                      
REMARK   3  TLS DETAILS.                                                        
REMARK   3   NUMBER OF TLS GROUPS  :            2                               
REMARK   3                                                                      
REMARK   3   TLS GROUP :            1                                           
REMARK   3    SET : { A|* }                                                     
REMARK   3    ORIGIN FOR THE GROUP (A):  -13.5238   -1.3883  -19.5011           
REMARK   3    T TENSOR                                                          
REMARK   3     T11:   -0.0873 T22:   -0.1418                                    
REMARK   3     T33:   -0.2529 T12:   -0.1104                                    
REMARK   3     T13:    0.1153 T23:    0.0177                                    
REMARK   3    L TENSOR                                                          
REMARK   3     L11:    2.6909 L22:    4.2758                                    
REMARK   3     L33:    3.4844 L12:   -1.1400                                    
REMARK   3     L13:    0.2601 L23:    1.5135                                    
REMARK   3    S TENSOR                                                          
REMARK   3     S11:    0.0497 S12:    0.1435 S13:    0.0764                     
REMARK   3     S21:   -0.4957 S22:    0.1532 S23:   -0.2309                     
REMARK   3     S31:   -0.1616 S32:    0.3966 S33:   -0.2029                     
REMARK   3                                                                      
REMARK   3   TLS GROUP :            2                                           
REMARK   3    SET : { B|* }                                                     
REMARK   3    ORIGIN FOR THE GROUP (A):  -18.1023    1.1535  -15.6648           
REMARK   3    T TENSOR                                                          
REMARK   3     T11:    0.0155 T22:   -0.0261                                    
REMARK   3     T33:   -0.0969 T12:   -0.0482                                    
REMARK   3     T13:    0.0187 T23:    0.0088                                    
REMARK   3    L TENSOR                                                          
REMARK   3     L11:    1.0718 L22:    2.0372                                    
REMARK   3     L33:    2.2892 L12:   -0.9719                                    
REMARK   3     L13:    0.2037 L23:    0.3639                                    
REMARK   3    S TENSOR                                                          
REMARK   3     S11:   -0.0328 S12:   -0.0440 S13:    0.0920                     
REMARK   3     S21:   -0.1988 S22:    0.0659 S23:   -0.0958                     
REMARK   3     S31:   -0.0915 S32:    0.1778 S33:   -0.0330                     
REMARK   3                                                                      
REMARK   3  REFINEMENT NOTES.                                                   
REMARK   3   NUMBER OF REFINEMENT NOTES :   1                                   
REMARK   3   NOTE   1 : IDEAL-DIST CONTACT TERM CONTACT SETUP. ALL ATOMS        
REMARK   3               HAVE CCP4 ATOM TYPE FROM LIBRARY                       
REMARK   3
REMARK   3  OTHER REFINEMENT REMARKS: NULL
REMARK   3
REMARK 290                                                            
REMARK 290 CRYSTALLOGRAPHIC SYMMETRY                                  
REMARK 290 SYMMETRY OPERATORS FOR SPACE GROUP: P 43 2 2               
REMARK 290                                                            
REMARK 290      SYMOP   SYMMETRY                                      
REMARK 290     NNNMMM   OPERATOR                                      
REMARK 290       1555   X,Y,Z                                         
REMARK 290       2555   -X,-Y,1/2+Z                                   
REMARK 290       3555   -Y,X,3/4+Z                                    
REMARK 290       4555   Y,-X,1/4+Z                                    
REMARK 290       5555   -X,Y,-Z                                       
REMARK 290       6555   X,-Y,1/2-Z                                    
REMARK 290       7555   Y,X,1/4-Z                                     
REMARK 290       8555   -Y,-X,3/4-Z                                   
REMARK 290                                                            
REMARK 290     WHERE NNN -> OPERATOR NUMBER                           
REMARK 290           MMM -> TRANSLATION VECTOR                        
REMARK 290                                                            
REMARK 290 CRYSTALLOGRAPHIC SYMMETRY TRANSFORMATIONS                  
REMARK 290 THE FOLLOWING TRANSFORMATIONS OPERATE ON THE ATOM/HETATM   
REMARK 290 RECORDS IN THIS ENTRY TO PRODUCE CRYSTALLOGRAPHICALLY      
REMARK 290 RELATED MOLECULES.                                         
REMARK 290   SMTRY1   1  1.000000  0.000000  0.000000        0.00000
REMARK 290   SMTRY2   1  0.000000  1.000000  0.000000        0.00000
REMARK 290   SMTRY3   1  0.000000  0.000000  1.000000        0.00000
REMARK 290   SMTRY1   2 -1.000000  0.000000  0.000000        0.00000
REMARK 290   SMTRY2   2  0.000000 -1.000000  0.000000        0.00000
REMARK 290   SMTRY3   2  0.000000  0.000000  1.000000      108.92950
REMARK 290   SMTRY1   3  0.000000 -1.000000  0.000000        0.00000
REMARK 290   SMTRY2   3  1.000000  0.000000  0.000000        0.00000
REMARK 290   SMTRY3   3  0.000000  0.000000  1.000000      163.39425
REMARK 290   SMTRY1   4  0.000000  1.000000  0.000000        0.00000
REMARK 290   SMTRY2   4 -1.000000  0.000000  0.000000        0.00000
REMARK 290   SMTRY3   4  0.000000  0.000000  1.000000       54.46475
REMARK 290   SMTRY1   5 -1.000000  0.000000  0.000000        0.00000
REMARK 290   SMTRY2   5  0.000000  1.000000  0.000000        0.00000
REMARK 290   SMTRY3   5  0.000000  0.000000 -1.000000        0.00000
REMARK 290   SMTRY1   6  1.000000  0.000000  0.000000        0.00000
REMARK 290   SMTRY2   6  0.000000 -1.000000  0.000000        0.00000
REMARK 290   SMTRY3   6  0.000000  0.000000 -1.000000      108.92950
REMARK 290   SMTRY1   7  0.000000  1.000000  0.000000        0.00000
REMARK 290   SMTRY2   7  1.000000  0.000000  0.000000        0.00000
REMARK 290   SMTRY3   7  0.000000  0.000000 -1.000000       54.46475
REMARK 290   SMTRY1   8  0.000000 -1.000000  0.000000        0.00000
REMARK 290   SMTRY2   8 -1.000000  0.000000  0.000000        0.00000
REMARK 290   SMTRY3   8  0.000000  0.000000 -1.000000      163.39425
REMARK 290                                                            
REMARK 290 REMARK: NULL                                               
CRYST1   41.633   41.633  217.859  90.00  90.00  90.00 P 43 2 2       


$$$$
XX01ZVNS2B-x3093_ASAP-0022538
  PyMOL3.0          3D                             0

 23 25  0  0  0  0  0  0  0  0999 V2000
   -6.2730    6.0500  -17.1460 N   0  0  0  0  0  0  0  0  0  0  0  0
   -3.4990    5.4760  -18.6260 C   0  0  0  0  0  0  0  0  0  0  0  0
   -7.0990    6.0550  -14.3110 O   0  0  0  0  0  0  0  0  0  0  0  0
   -4.5380    6.5640  -18.8150 C   0  0  0  0  0  0  0  0  0  0  0  0
   -9.0120    4.9590  -13.7500 N   0  0  0  0  0  0  0  0  0  0  0  0
   -4.5150    7.1350  -20.2150 C   0  0  0  0  0  0  0  0  0  0  0  0
   -8.7710    2.3750   -8.5460 N   0  0  0  0  0  0  0  0  0  0  0  0
   -5.9070    6.0940  -18.4100 C   0  0  0  0  0  0  0  0  0  0  0  0
   -6.8650    5.6470  -19.2580 N   0  0  0  0  0  0  0  0  0  0  0  0
   -7.5640    5.5280  -17.1570 C   0  0  0  0  0  0  0  0  0  0  0  0
   -8.4500    5.2570  -16.1010 C   0  0  0  0  0  0  0  0  0  0  0  0
   -8.1210    5.4600  -14.6470 C   0  0  0  0  0  0  0  0  0  0  0  0
   -8.9560    5.0500  -12.3320 C   0  0  0  0  0  0  0  0  0  0  0  0
   -8.5480    6.2320  -11.7240 C   0  0  0  0  0  0  0  0  0  0  0  0
   -8.5210    6.3200  -10.3420 C   0  0  0  0  0  0  0  0  0  0  0  0
   -8.9060    5.2420   -9.5640 C   0  0  0  0  0  0  0  0  0  0  0  0
   -9.3370    4.0640  -10.1520 C   0  0  0  0  0  0  0  0  0  0  0  0
   -9.8710    2.9500   -9.3090 C   0  0  0  0  0  0  0  0  0  0  0  0
   -9.3420    3.9720  -11.5420 C   0  0  0  0  0  0  0  0  0  0  0  0
   -9.7070    4.7560  -16.4440 C   0  0  0  0  0  0  0  0  0  0  0  0
  -10.0770    4.5240  -17.7650 C   0  0  0  0  0  0  0  0  0  0  0  0
   -9.1970    4.7720  -18.8060 C   0  0  0  0  0  0  0  0  0  0  0  0
   -7.9460    5.2760  -18.4760 C   0  0  0  0  0  0  0  0  0  0  0  0
  1  8  4  0  0  0  0
  3 12  2  0  0  0  0
  2  4  1  0  0  0  0
  4  6  1  0  0  0  0
  5 13  1  0  0  0  0
  4  8  1  0  0  0  0
  8  9  4  0  0  0  0
  1 10  4  0  0  0  0
 10 11  4  0  0  0  0
 11 20  4  0  0  0  0
  5 12  1  0  0  0  0
 11 12  1  0  0  0  0
 13 14  4  0  0  0  0
 13 19  4  0  0  0  0
 14 15  4  0  0  0  0
 15 16  4  0  0  0  0
 16 17  4  0  0  0  0
 17 18  1  0  0  0  0
  7 18  1  0  0  0  0
 17 19  4  0  0  0  0
 20 21  4  0  0  0  0
 21 22  4  0  0  0  0
 22 23  4  0  0  0  0
  9 23  4  0  0  0  0
 10 23  4  0  0  0  0
M  END
>  <pdb_header>
REMARK --------------------- added by autoBUSTER ---------------------------------START
REMARK run at   = Wed May 22 10:49:07 BST 2024
REMARK     in   = /dls/labxchem/data/lb32627/lb32627-65/processing/analysis/model_building/XX01ZVNS2B-x3094
REMARK     user = kyf22269
REMARK     cmd  = \
REMARK            /dls_sw/apps/GPhL/BUSTER/20211020/autoBUSTER/bin/linux64/refine \
REMARK            -p \
REMARK            /dls/labxchem/data/lb32627/lb32627-65/processing/analysis/model_building/XX01ZVNS2B-x3094/cootOut/Refine_5/in.pdb \
REMARK            -m \
REMARK            /dls/labxchem/data/lb32627/lb32627-65/processing/analysis/model_building/XX01ZVNS2B-x3094/XX01ZVNS2B-x3094.free.mtz \
REMARK            -l \
REMARK            /dls/labxchem/data/lb32627/lb32627-65/processing/analysis/model_building/XX01ZVNS2B-x3094/ASAP-0022538-001.cif \
REMARK            -autoncs -M TLSbasic -d Refine_5
REMARK Files used:
REMARK   PDB              = Refine_5/pdbchk.pdb
REMARK   MTZ              = /dls/labxchem/data/lb32627/lb32627-65/processing/analysis/model_building/XX01ZVNS2B-x3094/XX01ZVNS2B-x3094.free.mtz
REMARK output written to subdirectory = Refine_5
REMARK best refinement for F,SIGF with R/Rfree 0.2539/0.2891
REMARK header records are copied from input PDB file (apart from REMARK 3!)
REMARK --------------------- added by autoBUSTER -----------------------------------END
REMARK --------------------- added by autoBUSTER -------------------------------
REMARK run at   = Tue May 21 16:44:37 BST 2024                                  
REMARK     in   = /dls/labxchem/data/lb32627/lb32627-65/processing/analysis/mode
REMARK     user = kyf22269                                                      
REMARK     cmd  = \                                                             
REMARK            /dls_sw/apps/GPhL/BUSTER/20211020/autoBUSTER/bin/linux64/refin
REMARK            -p \                                                          
REMARK            /dls/labxchem/data/lb32627/lb32627-65/processing/analysis/mode
REMARK            -m \                                                          
REMARK            /dls/labxchem/data/lb32627/lb32627-65/processing/analysis/mode
REMARK            -l \                                                          
REMARK            /dls/labxchem/data/lb32627/lb32627-65/processing/analysis/mode
REMARK            -autoncs -M TLSbasic -d Refine_4                              
REMARK Files used:                                                              
REMARK   PDB              = Refine_4/pdbchk.pdb                                 
REMARK   MTZ              = /dls/labxchem/data/lb32627/lb32627-65/processing/ana
REMARK output written to subdirectory = Refine_4                                
REMARK best refinement for F,SIGF with R/Rfree 0.2540/0.2894                    
REMARK header records are copied from input PDB file (apart from REMARK 3!)     
REMARK --------------------- added by autoBUSTER -------------------------------
REMARK --------------------- added by autoBUSTER -------------------------------
REMARK run at   = Wed May  8 13:37:01 BST 2024                                  
REMARK     in   = /dls/labxchem/data/lb32627/lb32627-65/processing/analysis/mode
REMARK     user = kyf22269                                                      
REMARK     cmd  = \                                                             
REMARK            /dls_sw/apps/GPhL/BUSTER/20211020/autoBUSTER/bin/linux64/refin
REMARK            -p \                                                          
REMARK            /dls/labxchem/data/lb32627/lb32627-65/processing/analysis/mode
REMARK            -m \                                                          
REMARK            /dls/labxchem/data/lb32627/lb32627-65/processing/analysis/mode
REMARK            -l \                                                          
REMARK            /dls/labxchem/data/lb32627/lb32627-65/processing/analysis/mode
REMARK            -autoncs -M TLSbasic -d Refine_3                              
REMARK Files used:                                                              
REMARK   PDB              = Refine_3/pdbchk.pdb                                 
REMARK   MTZ              = /dls/labxchem/data/lb32627/lb32627-65/processing/ana
REMARK output written to subdirectory = Refine_3                                
REMARK best refinement for F,SIGF with R/Rfree 0.2546/0.2900                    
REMARK header records are copied from input PDB file (apart from REMARK 3!)     
REMARK --------------------- added by autoBUSTER -------------------------------
REMARK --------------------- added by autoBUSTER -------------------------------
REMARK run at   = Wed May  8 12:15:32 BST 2024                                  
REMARK     in   = /dls/labxchem/data/lb32627/lb32627-65/processing/analysis/mode
REMARK     user = kyf22269                                                      
REMARK     cmd  = \                                                             
REMARK            /dls_sw/apps/GPhL/BUSTER/20211020/autoBUSTER/bin/linux64/refin
REMARK            -p \                                                          
REMARK            /dls/labxchem/data/lb32627/lb32627-65/processing/analysis/mode
REMARK            -m \                                                          
REMARK            /dls/labxchem/data/lb32627/lb32627-65/processing/analysis/mode
REMARK            -l \                                                          
REMARK            /dls/labxchem/data/lb32627/lb32627-65/processing/analysis/mode
REMARK            -autoncs -M TLSbasic -d Refine_2                              
REMARK Files used:                                                              
REMARK   PDB              = Refine_2/pdbchk.pdb                                 
REMARK   MTZ              = /dls/labxchem/data/lb32627/lb32627-65/processing/ana
REMARK output written to subdirectory = Refine_2                                
REMARK best refinement for F,SIGF with R/Rfree 0.2549/0.2846                    
REMARK header records are copied from input PDB file (apart from REMARK 3!)     
REMARK --------------------- added by autoBUSTER -------------------------------
REMARK --------------------- added by autoBUSTER -------------------------------
REMARK run at   = Tue May  7 18:13:51 BST 2024                                  
REMARK     in   = /dls/labxchem/data/lb32627/lb32627-65/processing/analysis/mode
REMARK     user = kyf22269                                                      
REMARK     cmd  = \                                                             
REMARK            /dls_sw/apps/GPhL/BUSTER/20211020/autoBUSTER/bin/linux64/refin
REMARK            -p \                                                          
REMARK            /dls/labxchem/data/lb32627/lb32627-65/processing/analysis/mode
REMARK            -m \                                                          
REMARK            /dls/labxchem/data/lb32627/lb32627-65/processing/analysis/mode
REMARK            -l \                                                          
REMARK            /dls/labxchem/data/lb32627/lb32627-65/processing/analysis/mode
REMARK            -autoncs -M TLSbasic -d Refine_1                              
REMARK Files used:                                                              
REMARK   PDB              = Refine_1/pdbchk.pdb                                 
REMARK   MTZ              = /dls/labxchem/data/lb32627/lb32627-65/processing/ana
REMARK output written to subdirectory = Refine_1                                
REMARK best refinement for F,SIGF with R/Rfree 0.2586/0.2832                    
REMARK header records are copied from input PDB file (apart from REMARK 3!)     
REMARK --------------------- added by autoBUSTER -------------------------------
HEADER    ----                                    23-FEB-23                     
TITLE     ---                                                                   
COMPND    ---                                                                   
EXPDTA    X-RAY DIFFRACTION
REMARK   2                                                            
REMARK   2 RESOLUTION.    1.96 ANGSTROMS.
REMARK   3
REMARK   3 REFINEMENT.
REMARK   3   PROGRAM     : BUSTER 2.10.4 (20-OCT-2021)
REMARK   3   AUTHORS     : BRICOGNE,BLANC,BRANDL,FLENSBURG,KELLER,
REMARK   3               : PACIOREK,ROVERSI,SHARFF,SMART,VONRHEIN,WOMACK;
REMARK   3               : MATTHEWS,TEN EYCK,TRONRUD
REMARK   3
REMARK   3  DATA USED IN REFINEMENT.
REMARK   3   RESOLUTION RANGE HIGH (ANGSTROMS) : 1.961
REMARK   3   RESOLUTION RANGE LOW  (ANGSTROMS) : 54.35
REMARK   3   DATA CUTOFF            (SIGMA(F)) : 0.000
REMARK   3   COMPLETENESS FOR RANGE        (%) : 98.7
REMARK   3   NUMBER OF REFLECTIONS             : 15055
REMARK   3
REMARK   3  FIT TO DATA USED IN REFINEMENT.
REMARK   3   CROSS-VALIDATION METHOD          : THROUGHOUT
REMARK   3   FREE R VALUE TEST SET SELECTION  : RANDOM
REMARK   3   R VALUE     (WORKING + TEST SET) : 0.2556
REMARK   3   R VALUE            (WORKING SET) : 0.2539
REMARK   3   FREE R VALUE                     : 0.2891
REMARK   3   FREE R VALUE TEST SET SIZE   (%) : 4.760
REMARK   3   FREE R VALUE TEST SET COUNT      : 716
REMARK   3   ESTIMATED ERROR OF FREE R VALUE  : NULL
REMARK   3
REMARK   3  FIT IN THE HIGHEST RESOLUTION BIN.
REMARK   3   TOTAL NUMBER OF BINS USED           : 36
REMARK   3   BIN RESOLUTION RANGE HIGH       (A) : 1.96
REMARK   3   BIN RESOLUTION RANGE LOW        (A) : 1.99
REMARK   3   BIN COMPLETENESS (WORKING+TEST) (%) : 69.64
REMARK   3   REFLECTIONS IN BIN   (WORKING+TEST) : 431
REMARK   3   BIN R VALUE          (WORKING+TEST) : 0.4688
REMARK   3   REFLECTIONS IN BIN    (WORKING SET) : 411
REMARK   3   BIN R VALUE           (WORKING SET) : 0.4685
REMARK   3   BIN FREE R VALUE                    : 0.4757
REMARK   3   BIN FREE R VALUE TEST SET SIZE  (%) : 4.64
REMARK   3   BIN FREE R VALUE TEST SET COUNT     : 20
REMARK   3   ESTIMATED ERROR OF BIN FREE R VALUE : NULL
REMARK   3
REMARK   3  NUMBER OF NON-HYDROGEN ATOMS USED IN REFINEMENT.
REMARK   3   PROTEIN ATOMS            : 1476
REMARK   3   NUCLEIC ACID ATOMS       : 0
REMARK   3   HETEROGEN ATOMS          : 27
REMARK   3   SOLVENT ATOMS            : 93
REMARK   3
REMARK   3  B VALUES.
REMARK   3   FROM WILSON PLOT           (A**2) : 39.69
REMARK   3   MEAN B VALUE      (OVERALL, A**2) : 51.24
REMARK   3   OVERALL ANISOTROPIC B VALUE.
REMARK   3    B11 (A**2) : 1.19630
REMARK   3    B22 (A**2) : 1.19630
REMARK   3    B33 (A**2) : -2.39270
REMARK   3    B12 (A**2) : 0.00000
REMARK   3    B13 (A**2) : 0.00000
REMARK   3    B23 (A**2) : 0.00000
REMARK   3
REMARK   3  ESTIMATED COORDINATE ERROR.
REMARK   3   ESD FROM LUZZATI PLOT                    (A) : 0.34
REMARK   3   DPI (BLOW EQ-10) BASED ON R VALUE        (A) : 0.239
REMARK   3   DPI (BLOW EQ-9) BASED ON FREE R VALUE    (A) : 0.195
REMARK   3   DPI (CRUICKSHANK) BASED ON R VALUE       (A) : 0.218
REMARK   3   DPI (CRUICKSHANK) BASED ON FREE R VALUE  (A) : 0.187
REMARK   3
REMARK   3   REFERENCES: BLOW, D. (2002) ACTA CRYST D58, 792-797
REMARK   3               CRUICKSHANK, D.W.J. (1999) ACTA CRYST D55, 583-601
REMARK   3
REMARK   3  CORRELATION COEFFICIENTS.
REMARK   3   CORRELATION COEFFICIENT FO-FC      : 0.942
REMARK   3   CORRELATION COEFFICIENT FO-FC FREE : 0.928
REMARK   3
REMARK   3  X-RAY WEIGHT : 7.83
REMARK   3
REMARK   3  GEOMETRY FUNCTION.                                                  
REMARK   3   RESTRAINT LIBRARIES.                                               
REMARK   3    NUMBER OF LIBRARIES USED :   9                                    
REMARK   3    LIBRARY  1 : protgeo_eh99.dat (V1.6.4.17) 20191001  STANDARD      
REMARK   3                 AMINO ACID DICTIONARY. BONDS AND ANGLES FROM         
REMARK   3                 ENGH AND HUBER EH99. OTHER VALUES BASED ON           
REMARK   3                 PREVIOUS TNT OR TAKEN FROM CCP4. INCLUDES            
REMARK   3                 HYDROGEN ATOMS.                                      
REMARK   3    LIBRARY  2 : exoticaa.dat (V1.3.4.15) 20200327  COLLECTION        
REMARK   3                 OF NON-STANDARD AMINO ACIDS, MAINLY EH91             
REMARK   3                 WITHOUT IDEAL DISTANCE INFO                          
REMARK   3    LIBRARY  3 : nuclgeo.dat (V1.13.4.8) 20190909                     
REMARK   3    LIBRARY  4 : bcorrel.dat (V1.15.10.2) 20190616                    
REMARK   3    LIBRARY  5 : contact.dat (V1.15.12.10) 20191121                   
REMARK   3    LIBRARY  6 : idealdist_contact.dat (V1.3.4.12) 20191001           
REMARK   3                 IDEAL-DISTANCE CONTACT TERM DATA AS USED IN          
REMARK   3                 PROLSQ. VALUES USED HERE ARE BASED ON DATA           
REMARK   3                 HARVESTING OF PDB AS OF 20190109.                    
REMARK   3    LIBRARY  7 : restraints for LIG (unknown) from cif                
REMARK   3                 dictionary ASAP-0022538-001.cif; generated by        
REMARK   3                 GRADE 1.2.21 (Feb 03 2022) from SMILES               
REMARK   3                 CC(C)c1nc2c(C(=O)Nc3cccc(CN)c3)cccc2[nH]1 using      
REMARK   3                 MOGUL 1.8.5(274361), CSD as541be, with quantum       
REMARK   3                 mechanics RM1                                        
REMARK   3    LIBRARY  8 : restraints for DMS (DIMETHYL SULFOXIDE) from         
REMARK   3                 cif dictionary DMS.cif; buster common-compounds      
REMARK   3                 v 2.0 (19 Dec 2011)                                  
REMARK   3    LIBRARY  9 : assume.dat (V1.9.4.2) 20180705                       
REMARK   3                                                                      
REMARK   3   NUMBER OF GEOMETRIC FUNCTION TERMS DEFINED : 15                    
REMARK   3   TERM                          COUNT    WEIGHT   FUNCTION.          
REMARK   3    BOND LENGTHS              :   1571 ;   2.00 ;  HARMONIC           
REMARK   3    BOND ANGLES               :   2140 ;   2.00 ;  HARMONIC           
REMARK   3    TORSION ANGLES            :    535 ;   2.00 ;  SINUSOIDAL         
REMARK   3    TRIGONAL CARBON PLANES    :   NULL ;   NULL ;  NULL               
REMARK   3    GENERAL PLANES            :    293 ;   5.00 ;  HARMONIC           
REMARK   3    ISOTROPIC THERMAL FACTORS :   1571 ;  10.00 ;  HARMONIC           
REMARK   3    BAD NON-BONDED CONTACTS   :   NULL ;   NULL ;  NULL               
REMARK   3    IMPROPER TORSIONS         :   NULL ;   NULL ;  NULL               
REMARK   3    PSEUDOROTATION ANGLES     :   NULL ;   NULL ;  NULL               
REMARK   3    CHIRAL IMPROPER TORSION   :    196 ;   5.00 ;  SEMIHARMONIC       
REMARK   3    SUM OF OCCUPANCIES        :   NULL ;   NULL ;  NULL               
REMARK   3    UTILITY DISTANCES         :   NULL ;   NULL ;  NULL               
REMARK   3    UTILITY ANGLES            :   NULL ;   NULL ;  NULL               
REMARK   3    UTILITY TORSION           :   NULL ;   NULL ;  NULL               
REMARK   3    IDEAL-DIST CONTACT TERM   :   1250 ;   4.00 ;  SEMIHARMONIC       
REMARK   3                                                                      
REMARK   3   RMS DEVIATIONS FROM IDEAL VALUES.                                  
REMARK   3   BOND LENGTHS                       (A) : 0.008                     
REMARK   3   BOND ANGLES                  (DEGREES) : 0.99                      
REMARK   3   PEPTIDE OMEGA TORSION ANGLES (DEGREES) : 3.14                      
REMARK   3   OTHER TORSION ANGLES         (DEGREES) : 18.06                     
REMARK   3                                                                      
REMARK   3   SIMILARITY.                                                        
REMARK   3    NCS.                                                              
REMARK   3     NCS METHOD: NONE                                                 
REMARK   3    TARGET RESTRAINTS.                                                
REMARK   3     TARGET REPRESENTATION : NONE                                     
REMARK   3     TARGET STRUCTURE : NULL                                          
REMARK   3                                                                      
REMARK   3  TLS DETAILS.                                                        
REMARK   3   NUMBER OF TLS GROUPS  :            2                               
REMARK   3                                                                      
REMARK   3   TLS GROUP :            1                                           
REMARK   3    SET : { A|* }                                                     
REMARK   3    ORIGIN FOR THE GROUP (A):  -14.0051   -1.3340  -19.4796           
REMARK   3    T TENSOR                                                          
REMARK   3     T11:   -0.0503 T22:   -0.0724                                    
REMARK   3     T33:   -0.3248 T12:    0.0652                                    
REMARK   3     T13:    0.0517 T23:    0.0329                                    
REMARK   3    L TENSOR                                                          
REMARK   3     L11:    2.6360 L22:    3.5069                                    
REMARK   3     L33:    4.8744 L12:   -1.5677                                    
REMARK   3     L13:    0.4751 L23:    0.4758                                    
REMARK   3    S TENSOR                                                          
REMARK   3     S11:    0.2235 S12:    0.3566 S13:    0.0800                     
REMARK   3     S21:   -0.1959 S22:   -0.2157 S23:   -0.1378                     
REMARK   3     S31:   -0.0789 S32:    0.4364 S33:   -0.0078                     
REMARK   3                                                                      
REMARK   3   TLS GROUP :            2                                           
REMARK   3    SET : { B|* }                                                     
REMARK   3    ORIGIN FOR THE GROUP (A):  -18.5868    1.2492  -15.7060           
REMARK   3    T TENSOR                                                          
REMARK   3     T11:    0.0957 T22:    0.0098                                    
REMARK   3     T33:   -0.2087 T12:    0.0885                                    
REMARK   3     T13:    0.0153 T23:    0.0173                                    
REMARK   3    L TENSOR                                                          
REMARK   3     L11:    0.8851 L22:    1.7853                                    
REMARK   3     L33:    3.1734 L12:   -0.6372                                    
REMARK   3     L13:    0.4147 L23:    0.1277                                    
REMARK   3    S TENSOR                                                          
REMARK   3     S11:    0.1947 S12:    0.1030 S13:    0.0775                     
REMARK   3     S21:   -0.1234 S22:   -0.1849 S23:    0.0411                     
REMARK   3     S31:   -0.0042 S32:    0.1467 S33:   -0.0098                     
REMARK   3                                                                      
REMARK   3  REFINEMENT NOTES.                                                   
REMARK   3   NUMBER OF REFINEMENT NOTES :   1                                   
REMARK   3   NOTE   1 : IDEAL-DIST CONTACT TERM CONTACT SETUP. ALL ATOMS        
REMARK   3               HAVE CCP4 ATOM TYPE FROM LIBRARY                       
REMARK   3
REMARK   3  OTHER REFINEMENT REMARKS: NULL
REMARK   3
REMARK 290                                                            
REMARK 290 CRYSTALLOGRAPHIC SYMMETRY                                  
REMARK 290 SYMMETRY OPERATORS FOR SPACE GROUP: P 43 2 2               
REMARK 290                                                            
REMARK 290      SYMOP   SYMMETRY                                      
REMARK 290     NNNMMM   OPERATOR                                      
REMARK 290       1555   X,Y,Z                                         
REMARK 290       2555   -X,-Y,1/2+Z                                   
REMARK 290       3555   -Y,X,3/4+Z                                    
REMARK 290       4555   Y,-X,1/4+Z                                    
REMARK 290       5555   -X,Y,-Z                                       
REMARK 290       6555   X,-Y,1/2-Z                                    
REMARK 290       7555   Y,X,1/4-Z                                     
REMARK 290       8555   -Y,-X,3/4-Z                                   
REMARK 290                                                            
REMARK 290     WHERE NNN -> OPERATOR NUMBER                           
REMARK 290           MMM -> TRANSLATION VECTOR                        
REMARK 290                                                            
REMARK 290 CRYSTALLOGRAPHIC SYMMETRY TRANSFORMATIONS                  
REMARK 290 THE FOLLOWING TRANSFORMATIONS OPERATE ON THE ATOM/HETATM   
REMARK 290 RECORDS IN THIS ENTRY TO PRODUCE CRYSTALLOGRAPHICALLY      
REMARK 290 RELATED MOLECULES.                                         
REMARK 290   SMTRY1   1  1.000000  0.000000  0.000000        0.00000
REMARK 290   SMTRY2   1  0.000000  1.000000  0.000000        0.00000
REMARK 290   SMTRY3   1  0.000000  0.000000  1.000000        0.00000
REMARK 290   SMTRY1   2 -1.000000  0.000000  0.000000        0.00000
REMARK 290   SMTRY2   2  0.000000 -1.000000  0.000000        0.00000
REMARK 290   SMTRY3   2  0.000000  0.000000  1.000000      108.71050
REMARK 290   SMTRY1   3  0.000000 -1.000000  0.000000        0.00000
REMARK 290   SMTRY2   3  1.000000  0.000000  0.000000        0.00000
REMARK 290   SMTRY3   3  0.000000  0.000000  1.000000      163.06575
REMARK 290   SMTRY1   4  0.000000  1.000000  0.000000        0.00000
REMARK 290   SMTRY2   4 -1.000000  0.000000  0.000000        0.00000
REMARK 290   SMTRY3   4  0.000000  0.000000  1.000000       54.35525
REMARK 290   SMTRY1   5 -1.000000  0.000000  0.000000        0.00000
REMARK 290   SMTRY2   5  0.000000  1.000000  0.000000        0.00000
REMARK 290   SMTRY3   5  0.000000  0.000000 -1.000000        0.00000
REMARK 290   SMTRY1   6  1.000000  0.000000  0.000000        0.00000
REMARK 290   SMTRY2   6  0.000000 -1.000000  0.000000        0.00000
REMARK 290   SMTRY3   6  0.000000  0.000000 -1.000000      108.71050
REMARK 290   SMTRY1   7  0.000000  1.000000  0.000000        0.00000
REMARK 290   SMTRY2   7  1.000000  0.000000  0.000000        0.00000
REMARK 290   SMTRY3   7  0.000000  0.000000 -1.000000       54.35525
REMARK 290   SMTRY1   8  0.000000 -1.000000  0.000000        0.00000
REMARK 290   SMTRY2   8 -1.000000  0.000000  0.000000        0.00000
REMARK 290   SMTRY3   8  0.000000  0.000000 -1.000000      163.06575
REMARK 290                                                            
REMARK 290 REMARK: NULL                                               
CRYST1   42.424   42.424  217.421  90.00  90.00  90.00 P 43 2 2       


$$$$
XX01ZVNS2B-x3264-ASAP-0027707
  PyMOL3.0          3D                             0

 23 25  0  0  0  0  0  0  0  0999 V2000
   -6.7530    6.8310  -20.2480 N   0  0  0  0  0  0  0  0  0  0  0  0
   -6.6300    5.6090  -19.4470 C   0  0  0  0  0  0  0  0  0  0  0  0
   -7.6030    6.6140  -14.3960 O   0  0  0  0  0  0  0  0  0  0  0  0
  -11.7270    4.7980  -18.6700 Cl  0  0  0  0  0  0  0  0  0  0  0  0
   -7.7940    5.4940  -18.4930 C   0  0  0  0  0  0  0  0  0  0  0  0
   -9.2170    5.0850  -13.9280 N   0  0  0  0  0  0  0  0  0  0  0  0
   -9.0700    5.1930  -18.9610 C   0  0  0  0  0  0  0  0  0  0  0  0
   -9.5290    8.9300  -10.4560 N   0  0  0  0  0  0  0  0  0  0  0  0
  -10.1130    5.0730  -18.0650 C   0  0  0  0  0  0  0  0  0  0  0  0
   -9.6790    9.8220   -9.4980 N   0  0  0  0  0  0  0  0  0  0  0  0
   -9.9230    5.2240  -16.7070 C   0  0  0  0  0  0  0  0  0  0  0  0
   -9.3950    9.2140   -8.3700 N   0  0  0  0  0  0  0  0  0  0  0  0
   -8.6550    5.5420  -16.2330 C   0  0  0  0  0  0  0  0  0  0  0  0
   -9.0520    7.9390   -8.5080 N   0  0  0  0  0  0  0  0  0  0  0  0
   -8.4360    5.7950  -14.7760 C   0  0  0  0  0  0  0  0  0  0  0  0
   -9.1980    5.1560  -12.5090 C   0  0  0  0  0  0  0  0  0  0  0  0
   -9.2210    3.9930  -11.7490 C   0  0  0  0  0  0  0  0  0  0  0  0
   -9.1500    4.0700  -10.3660 C   0  0  0  0  0  0  0  0  0  0  0  0
   -9.0640    5.3000   -9.7370 C   0  0  0  0  0  0  0  0  0  0  0  0
   -9.0680    6.4750  -10.4880 C   0  0  0  0  0  0  0  0  0  0  0  0
   -9.1680    7.7930   -9.8240 C   0  0  0  0  0  0  0  0  0  0  0  0
   -9.1170    6.3940  -11.8760 C   0  0  0  0  0  0  0  0  0  0  0  0
   -7.5960    5.6740  -17.1290 C   0  0  0  0  0  0  0  0  0  0  0  0
  1  2  1  0  0  0  0
  3 15  2  0  0  0  0
  2  5  1  0  0  0  0
  6 16  1  0  0  0  0
  5  7  4  0  0  0  0
  4  9  1  0  0  0  0
  7  9  4  0  0  0  0
  8 10  4  0  0  0  0
  9 11  4  0  0  0  0
 10 12  4  0  0  0  0
 11 13  4  0  0  0  0
 13 23  4  0  0  0  0
 12 14  4  0  0  0  0
  6 15  1  0  0  0  0
 13 15  1  0  0  0  0
 16 17  4  0  0  0  0
 16 22  4  0  0  0  0
 17 18  4  0  0  0  0
 18 19  4  0  0  0  0
 19 20  4  0  0  0  0
 20 21  1  0  0  0  0
  8 21  4  0  0  0  0
 14 21  4  0  0  0  0
 20 22  4  0  0  0  0
  5 23  4  0  0  0  0
M  END
>  <pdb_header>
REMARK --------------------- added by autoBUSTER ---------------------------------START
REMARK run at   = Wed Jul 17 12:01:05 BST 2024
REMARK     in   = /dls/labxchem/data/lb32627/lb32627-65/processing/analysis/model_building/XX01ZVNS2B-x3264
REMARK     user = kyf22269
REMARK     cmd  = \
REMARK            /dls_sw/apps/GPhL/BUSTER/20240123/autoBUSTER/bin/linux64/refine \
REMARK            -p \
REMARK            /dls/labxchem/data/lb32627/lb32627-65/processing/analysis/model_building/XX01ZVNS2B-x3264/cootOut/Refine_5/in.pdb \
REMARK            -m \
REMARK            /dls/labxchem/data/lb32627/lb32627-65/processing/analysis/model_building/XX01ZVNS2B-x3264/XX01ZVNS2B-x3264.free.mtz \
REMARK            -l \
REMARK            /dls/labxchem/data/lb32627/lb32627-65/processing/analysis/model_building/XX01ZVNS2B-x3264/ASAP-0027707-001.cif \
REMARK            -autoncs -M TLSbasic -d Refine_5
REMARK Files used:
REMARK   PDB              = Refine_5/pdbchk.pdb
REMARK   MTZ              = /dls/labxchem/data/lb32627/lb32627-65/processing/analysis/model_building/XX01ZVNS2B-x3264/XX01ZVNS2B-x3264.free.mtz
REMARK output written to subdirectory = Refine_5
REMARK best refinement for F,SIGF with R/Rfree 0.2205/0.2590
REMARK header records are copied from input PDB file (apart from REMARK 3!)
REMARK --------------------- added by autoBUSTER -----------------------------------END
REMARK --------------------- added by autoBUSTER -------------------------------
REMARK run at   = Tue Jul 16 15:42:49 BST 2024                                  
REMARK     in   = /dls/labxchem/data/lb32627/lb32627-65/processing/analysis/mode
REMARK     user = kyf22269                                                      
REMARK     cmd  = \                                                             
REMARK            /dls_sw/apps/GPhL/BUSTER/20240123/autoBUSTER/bin/linux64/refin
REMARK            -p \                                                          
REMARK            /dls/labxchem/data/lb32627/lb32627-65/processing/analysis/mode
REMARK            -m \                                                          
REMARK            /dls/labxchem/data/lb32627/lb32627-65/processing/analysis/mode
REMARK            -l \                                                          
REMARK            /dls/labxchem/data/lb32627/lb32627-65/processing/analysis/mode
REMARK            -autoncs -M TLSbasic -d Refine_4                              
REMARK Files used:                                                              
REMARK   PDB              = Refine_4/pdbchk.pdb                                 
REMARK   MTZ              = /dls/labxchem/data/lb32627/lb32627-65/processing/ana
REMARK output written to subdirectory = Refine_4                                
REMARK best refinement for F,SIGF with R/Rfree 0.2217/0.2624                    
REMARK header records are copied from input PDB file (apart from REMARK 3!)     
REMARK --------------------- added by autoBUSTER -------------------------------
REMARK --------------------- added by autoBUSTER -------------------------------
REMARK run at   = Tue Jul 16 15:17:22 BST 2024                                  
REMARK     in   = /dls/labxchem/data/lb32627/lb32627-65/processing/analysis/mode
REMARK     user = kyf22269                                                      
REMARK     cmd  = \                                                             
REMARK            /dls_sw/apps/GPhL/BUSTER/20240123/autoBUSTER/bin/linux64/refin
REMARK            -p \                                                          
REMARK            /dls/labxchem/data/lb32627/lb32627-65/processing/analysis/mode
REMARK            -m \                                                          
REMARK            /dls/labxchem/data/lb32627/lb32627-65/processing/analysis/mode
REMARK            -l \                                                          
REMARK            /dls/labxchem/data/lb32627/lb32627-65/processing/analysis/mode
REMARK            -autoncs -M TLSbasic -d Refine_3                              
REMARK Files used:                                                              
REMARK   PDB              = Refine_3/pdbchk.pdb                                 
REMARK   MTZ              = /dls/labxchem/data/lb32627/lb32627-65/processing/ana
REMARK output written to subdirectory = Refine_3                                
REMARK best refinement for F,SIGF with R/Rfree 0.2220/0.2631                    
REMARK header records are copied from input PDB file (apart from REMARK 3!)     
REMARK --------------------- added by autoBUSTER -------------------------------
REMARK --------------------- added by autoBUSTER -------------------------------
REMARK run at   = Tue Jul 16 12:57:26 BST 2024                                  
REMARK     in   = /dls/labxchem/data/lb32627/lb32627-65/processing/analysis/mode
REMARK     user = kyf22269                                                      
REMARK     cmd  = \                                                             
REMARK            /dls_sw/apps/GPhL/BUSTER/20240123/autoBUSTER/bin/linux64/refin
REMARK            -p \                                                          
REMARK            /dls/labxchem/data/lb32627/lb32627-65/processing/analysis/mode
REMARK            -m \                                                          
REMARK            /dls/labxchem/data/lb32627/lb32627-65/processing/analysis/mode
REMARK            -l \                                                          
REMARK            /dls/labxchem/data/lb32627/lb32627-65/processing/analysis/mode
REMARK            -autoncs -M TLSbasic -d Refine_2                              
REMARK Files used:                                                              
REMARK   PDB              = Refine_2/pdbchk.pdb                                 
REMARK   MTZ              = /dls/labxchem/data/lb32627/lb32627-65/processing/ana
REMARK output written to subdirectory = Refine_2                                
REMARK best refinement for F,SIGF with R/Rfree 0.2241/0.2566                    
REMARK header records are copied from input PDB file (apart from REMARK 3!)     
REMARK --------------------- added by autoBUSTER -------------------------------
REMARK --------------------- added by autoBUSTER -------------------------------
REMARK run at   = Tue Jul 16 10:18:16 BST 2024                                  
REMARK     in   = /dls/labxchem/data/lb32627/lb32627-65/processing/analysis/mode
REMARK     user = kyf22269                                                      
REMARK     cmd  = \                                                             
REMARK            /dls_sw/apps/GPhL/BUSTER/20240123/autoBUSTER/bin/linux64/refin
REMARK            -p \                                                          
REMARK            /dls/labxchem/data/lb32627/lb32627-65/processing/analysis/mode
REMARK            -m \                                                          
REMARK            /dls/labxchem/data/lb32627/lb32627-65/processing/analysis/mode
REMARK            -l \                                                          
REMARK            /dls/labxchem/data/lb32627/lb32627-65/processing/analysis/mode
REMARK            -autoncs -M TLSbasic -d Refine_1                              
REMARK Files used:                                                              
REMARK   PDB              = Refine_1/pdbchk.pdb                                 
REMARK   MTZ              = /dls/labxchem/data/lb32627/lb32627-65/processing/ana
REMARK output written to subdirectory = Refine_1                                
REMARK best refinement for F,SIGF with R/Rfree 0.2301/0.2566                    
REMARK header records are copied from input PDB file (apart from REMARK 3!)     
REMARK --------------------- added by autoBUSTER -------------------------------
HEADER    ----                                    23-FEB-23                     
TITLE     ---                                                                   
COMPND    ---                                                                   
EXPDTA    X-RAY DIFFRACTION
REMARK   2                                                            
REMARK   2 RESOLUTION.    1.54 ANGSTROMS.
REMARK   3
REMARK   3 REFINEMENT.
REMARK   3   PROGRAM     : BUSTER 2.10.4 (23-JAN-2024)
REMARK   3   AUTHORS     : BRICOGNE,BLANC,BRANDL,FLENSBURG,KELLER,
REMARK   3               : PACIOREK,ROVERSI,SHARFF,SMART,VONRHEIN,WOMACK;
REMARK   3               : MATTHEWS,TEN EYCK,TRONRUD
REMARK   3
REMARK   3  DATA USED IN REFINEMENT.
REMARK   3   RESOLUTION RANGE HIGH (ANGSTROMS) : 1.538
REMARK   3   RESOLUTION RANGE LOW  (ANGSTROMS) : 54.26
REMARK   3   DATA CUTOFF            (SIGMA(F)) : 0.000
REMARK   3   COMPLETENESS FOR RANGE        (%) : 93.7
REMARK   3   NUMBER OF REFLECTIONS             : 29302
REMARK   3
REMARK   3  FIT TO DATA USED IN REFINEMENT.
REMARK   3   CROSS-VALIDATION METHOD          : THROUGHOUT
REMARK   3   FREE R VALUE TEST SET SELECTION  : RANDOM
REMARK   3   R VALUE     (WORKING + TEST SET) : 0.2224
REMARK   3   R VALUE            (WORKING SET) : 0.2205
REMARK   3   FREE R VALUE                     : 0.2590
REMARK   3   FREE R VALUE TEST SET SIZE   (%) : 5.030
REMARK   3   FREE R VALUE TEST SET COUNT      : 1474
REMARK   3   ESTIMATED ERROR OF FREE R VALUE  : NULL
REMARK   3
REMARK   3  FIT IN THE HIGHEST RESOLUTION BIN.
REMARK   3   TOTAL NUMBER OF BINS USED           : 51
REMARK   3   BIN RESOLUTION RANGE HIGH       (A) : 1.54
REMARK   3   BIN RESOLUTION RANGE LOW        (A) : 1.56
REMARK   3   BIN COMPLETENESS (WORKING+TEST) (%) : 50.04
REMARK   3   REFLECTIONS IN BIN   (WORKING+TEST) : 587
REMARK   3   BIN R VALUE          (WORKING+TEST) : 0.4610
REMARK   3   REFLECTIONS IN BIN    (WORKING SET) : 557
REMARK   3   BIN R VALUE           (WORKING SET) : 0.4601
REMARK   3   BIN FREE R VALUE                    : 0.4788
REMARK   3   BIN FREE R VALUE TEST SET SIZE  (%) : 5.11
REMARK   3   BIN FREE R VALUE TEST SET COUNT     : 30
REMARK   3   ESTIMATED ERROR OF BIN FREE R VALUE : NULL
REMARK   3
REMARK   3  NUMBER OF NON-HYDROGEN ATOMS USED IN REFINEMENT.
REMARK   3   PROTEIN ATOMS            : 1476
REMARK   3   NUCLEIC ACID ATOMS       : 0
REMARK   3   HETEROGEN ATOMS          : 40
REMARK   3   SOLVENT ATOMS            : 116
REMARK   3
REMARK   3  B VALUES.
REMARK   3   FROM WILSON PLOT           (A**2) : 28.95
REMARK   3   MEAN B VALUE      (OVERALL, A**2) : 40.61
REMARK   3   OVERALL ANISOTROPIC B VALUE.
REMARK   3    B11 (A**2) : -4.17900
REMARK   3    B22 (A**2) : -4.17900
REMARK   3    B33 (A**2) : 8.35810
REMARK   3    B12 (A**2) : 0.00000
REMARK   3    B13 (A**2) : 0.00000
REMARK   3    B23 (A**2) : 0.00000
REMARK   3
REMARK   3  ESTIMATED COORDINATE ERROR.
REMARK   3   ESD FROM LUZZATI PLOT                    (A) : 0.27
REMARK   3   DPI (BLOW EQ-10) BASED ON R VALUE        (A) : 0.099
REMARK   3   DPI (BLOW EQ-9) BASED ON FREE R VALUE    (A) : 0.101
REMARK   3   DPI (CRUICKSHANK) BASED ON R VALUE       (A) : 0.094
REMARK   3   DPI (CRUICKSHANK) BASED ON FREE R VALUE  (A) : 0.097
REMARK   3
REMARK   3   REFERENCES: BLOW, D. (2002) ACTA CRYST D58, 792-797
REMARK   3               CRUICKSHANK, D.W.J. (1999) ACTA CRYST D55, 583-601
REMARK   3
REMARK   3  CORRELATION COEFFICIENTS.
REMARK   3   CORRELATION COEFFICIENT FO-FC      : 0.950
REMARK   3   CORRELATION COEFFICIENT FO-FC FREE : 0.934
REMARK   3
REMARK   3  X-RAY WEIGHT : 5.39
REMARK   3
REMARK   3  GEOMETRY FUNCTION.                                                  
REMARK   3   RESTRAINT LIBRARIES.                                               
REMARK   3    NUMBER OF LIBRARIES USED :  10                                    
REMARK   3    LIBRARY  1 : protgeo_eh99.dat (V1.6.4.20) 20220523  STANDARD      
REMARK   3                 AMINO ACID DICTIONARY. BONDS AND ANGLES FROM         
REMARK   3                 ENGH AND HUBER EH99. OTHER VALUES BASED ON           
REMARK   3                 PREVIOUS TNT OR TAKEN FROM CCP4. INCLUDES            
REMARK   3                 HYDROGEN ATOMS.                                      
REMARK   3    LIBRARY  2 : exoticaa.dat (V1.3.4.17) 20231017  COLLECTION        
REMARK   3                 OF NON-STANDARD AMINO ACIDS, MAINLY EH91             
REMARK   3                 WITHOUT IDEAL DISTANCE INFO                          
REMARK   3    LIBRARY  3 : nuclgeo.dat (V1.13.4.9) 20221011                     
REMARK   3    LIBRARY  4 : bcorrel.dat (V1.15.10.2) 20190616                    
REMARK   3    LIBRARY  5 : contact.dat (V1.15.12.10) 20191121                   
REMARK   3    LIBRARY  6 : idealdist_contact.dat (V1.3.4.15) 20231124           
REMARK   3                 IDEAL-DISTANCE CONTACT TERM DATA AS USED IN          
REMARK   3                 PROLSQ. VALUES USED HERE ARE BASEd ON DATA           
REMARK   3                 HARVESTING OF PDB AS OF 20190109                     
REMARK   3    LIBRARY  7 : restraints for LIG (unknown) from cif                
REMARK   3                 dictionary ASAP-0027707-001.cif; generated by        
REMARK   3                 GRADE 1.2.21 (Feb 03 2022) from SMILES               
REMARK   3                 NCc1cc(Cl)cc(C(=O)Nc2cccc(-c3nn[nH]n3)c2)c1          
REMARK   3                 using MOGUL 1.8.5(274361), CSD as541be, with         
REMARK   3                 quantum mechanics RM1                                
REMARK   3    LIBRARY  8 : restraints for DMS (DIMETHYL SULFOXIDE) from         
REMARK   3                 cif dictionary DMS.cif; generated by grade2          
REMARK   3                 version 1.1.0a7 from                                 
REMARK   3                 PDB_chemical_components_definition_file              
REMARK   3                 ftp://ftp.ebi.ac.uk/pub/databases/msd/pdbechem_v     
REMARK   3                 2/D/DMS/DMS.cif using RDKit 2021.03.4                
REMARK   3                 ((DatabaseID PDB-DMS))                               
REMARK   3    LIBRARY  9 : restraints for SO4 (SULFATE ION) from cif            
REMARK   3                 dictionary SO4.cif; generated by grade2 version      
REMARK   3                 1.1.0a7 from                                         
REMARK   3                 PDB_chemical_components_definition_file              
REMARK   3                 ftp://ftp.ebi.ac.uk/pub/databases/msd/pdbechem_v     
REMARK   3                 2/S/SO4/SO4.cif using RDKit 2021.03.4                
REMARK   3                 ((DatabaseID PDB-SO4))                               
REMARK   3    LIBRARY 10 : assume.dat (V1.9.4.3) 20221011                       
REMARK   3                                                                      
REMARK   3   NUMBER OF GEOMETRIC FUNCTION TERMS DEFINED : 15                    
REMARK   3   TERM                          COUNT    WEIGHT   FUNCTION.          
REMARK   3    BOND LENGTHS              :   1581 ;   2.00 ;  HARMONIC           
REMARK   3    BOND ANGLES               :   2151 ;   2.00 ;  HARMONIC           
REMARK   3    TORSION ANGLES            :    535 ;   2.00 ;  SINUSOIDAL         
REMARK   3    TRIGONAL CARBON PLANES    :   NULL ;   NULL ;  NULL               
REMARK   3    GENERAL PLANES            :    293 ;   5.00 ;  HARMONIC           
REMARK   3    ISOTROPIC THERMAL FACTORS :   1581 ;  10.00 ;  HARMONIC           
REMARK   3    BAD NON-BONDED CONTACTS   :   NULL ;   NULL ;  NULL               
REMARK   3    IMPROPER TORSIONS         :   NULL ;   NULL ;  NULL               
REMARK   3    PSEUDOROTATION ANGLES     :   NULL ;   NULL ;  NULL               
REMARK   3    CHIRAL IMPROPER TORSION   :    196 ;   5.00 ;  SEMIHARMONIC       
REMARK   3    SUM OF OCCUPANCIES        :   NULL ;   NULL ;  NULL               
REMARK   3    UTILITY DISTANCES         :   NULL ;   NULL ;  NULL               
REMARK   3    UTILITY ANGLES            :   NULL ;   NULL ;  NULL               
REMARK   3    UTILITY TORSION           :   NULL ;   NULL ;  NULL               
REMARK   3    IDEAL-DIST CONTACT TERM   :   1281 ;   4.00 ;  SEMIHARMONIC       
REMARK   3                                                                      
REMARK   3   RMS DEVIATIONS FROM IDEAL VALUES.                                  
REMARK   3   BOND LENGTHS                       (A) : 0.010                     
REMARK   3   BOND ANGLES                  (DEGREES) : 1.02                      
REMARK   3   PEPTIDE OMEGA TORSION ANGLES (DEGREES) : 3.90                      
REMARK   3   OTHER TORSION ANGLES         (DEGREES) : 15.52                     
REMARK   3                                                                      
REMARK   3   SIMILARITY.                                                        
REMARK   3    NCS.                                                              
REMARK   3     NCS METHOD: NONE                                                 
REMARK   3    TARGET RESTRAINTS.                                                
REMARK   3     TARGET REPRESENTATION : NONE                                     
REMARK   3     TARGET STRUCTURE : NULL                                          
REMARK   3                                                                      
REMARK   3  TLS DETAILS.                                                        
REMARK   3   NUMBER OF TLS GROUPS  :            2                               
REMARK   3                                                                      
REMARK   3   TLS GROUP :            1                                           
REMARK   3    SET : { A|* }                                                     
REMARK   3    ORIGIN FOR THE GROUP (A):  -14.0752   -1.2432  -19.5491           
REMARK   3    T TENSOR                                                          
REMARK   3     T11:    0.0141 T22:   -0.0494                                    
REMARK   3     T33:   -0.1657 T12:    0.1036                                    
REMARK   3     T13:    0.0703 T23:    0.0614                                    
REMARK   3    L TENSOR                                                          
REMARK   3     L11:    2.7154 L22:    2.9828                                    
REMARK   3     L33:    3.3875 L12:   -1.7368                                    
REMARK   3     L13:    0.6032 L23:    0.7053                                    
REMARK   3    S TENSOR                                                          
REMARK   3     S11:    0.3698 S12:    0.3159 S13:    0.1860                     
REMARK   3     S21:   -0.4436 S22:   -0.3161 S23:   -0.1928                     
REMARK   3     S31:   -0.0202 S32:    0.4449 S33:   -0.0537                     
REMARK   3                                                                      
REMARK   3   TLS GROUP :            2                                           
REMARK   3    SET : { B|* }                                                     
REMARK   3    ORIGIN FOR THE GROUP (A):  -18.6123    1.4721  -15.7460           
REMARK   3    T TENSOR                                                          
REMARK   3     T11:    0.0881 T22:   -0.0216                                    
REMARK   3     T33:   -0.0348 T12:    0.1017                                    
REMARK   3     T13:    0.0027 T23:    0.0054                                    
REMARK   3    L TENSOR                                                          
REMARK   3     L11:    1.0409 L22:    1.0563                                    
REMARK   3     L33:    1.9331 L12:   -0.9700                                    
REMARK   3     L13:    0.4455 L23:    0.0686                                    
REMARK   3    S TENSOR                                                          
REMARK   3     S11:    0.2615 S12:    0.0859 S13:    0.0321                     
REMARK   3     S21:   -0.1842 S22:   -0.2467 S23:    0.0697                     
REMARK   3     S31:   -0.0015 S32:    0.1532 S33:   -0.0148                     
REMARK   3                                                                      
REMARK   3  REFINEMENT NOTES.                                                   
REMARK   3   NUMBER OF REFINEMENT NOTES :   1                                   
REMARK   3   NOTE   1 : IDEAL-DIST CONTACT TERM CONTACT SETUP. ALL ATOMS        
REMARK   3               HAVE CCP4 ATOM TYPE FROM LIBRARY                       
REMARK   3
REMARK   3  OTHER REFINEMENT REMARKS: NULL
REMARK   3
REMARK 290                                                            
REMARK 290 CRYSTALLOGRAPHIC SYMMETRY                                  
REMARK 290 SYMMETRY OPERATORS FOR SPACE GROUP: P 43 2 2               
REMARK 290                                                            
REMARK 290      SYMOP   SYMMETRY                                      
REMARK 290     NNNMMM   OPERATOR                                      
REMARK 290       1555   X,Y,Z                                         
REMARK 290       2555   -X,-Y,1/2+Z                                   
REMARK 290       3555   -Y,X,3/4+Z                                    
REMARK 290       4555   Y,-X,1/4+Z                                    
REMARK 290       5555   -X,Y,-Z                                       
REMARK 290       6555   X,-Y,1/2-Z                                    
REMARK 290       7555   Y,X,1/4-Z                                     
REMARK 290       8555   -Y,-X,3/4-Z                                   
REMARK 290                                                            
REMARK 290     WHERE NNN -> OPERATOR NUMBER                           
REMARK 290           MMM -> TRANSLATION VECTOR                        
REMARK 290                                                            
REMARK 290 CRYSTALLOGRAPHIC SYMMETRY TRANSFORMATIONS                  
REMARK 290 THE FOLLOWING TRANSFORMATIONS OPERATE ON THE ATOM/HETATM   
REMARK 290 RECORDS IN THIS ENTRY TO PRODUCE CRYSTALLOGRAPHICALLY      
REMARK 290 RELATED MOLECULES.                                         
REMARK 290   SMTRY1   1  1.000000  0.000000  0.000000        0.00000
REMARK 290   SMTRY2   1  0.000000  1.000000  0.000000        0.00000
REMARK 290   SMTRY3   1  0.000000  0.000000  1.000000        0.00000
REMARK 290   SMTRY1   2 -1.000000  0.000000  0.000000        0.00000
REMARK 290   SMTRY2   2  0.000000 -1.000000  0.000000        0.00000
REMARK 290   SMTRY3   2  0.000000  0.000000  1.000000      108.51950
REMARK 290   SMTRY1   3  0.000000 -1.000000  0.000000        0.00000
REMARK 290   SMTRY2   3  1.000000  0.000000  0.000000        0.00000
REMARK 290   SMTRY3   3  0.000000  0.000000  1.000000      162.77925
REMARK 290   SMTRY1   4  0.000000  1.000000  0.000000        0.00000
REMARK 290   SMTRY2   4 -1.000000  0.000000  0.000000        0.00000
REMARK 290   SMTRY3   4  0.000000  0.000000  1.000000       54.25975
REMARK 290   SMTRY1   5 -1.000000  0.000000  0.000000        0.00000
REMARK 290   SMTRY2   5  0.000000  1.000000  0.000000        0.00000
REMARK 290   SMTRY3   5  0.000000  0.000000 -1.000000        0.00000
REMARK 290   SMTRY1   6  1.000000  0.000000  0.000000        0.00000
REMARK 290   SMTRY2   6  0.000000 -1.000000  0.000000        0.00000
REMARK 290   SMTRY3   6  0.000000  0.000000 -1.000000      108.51950
REMARK 290   SMTRY1   7  0.000000  1.000000  0.000000        0.00000
REMARK 290   SMTRY2   7  1.000000  0.000000  0.000000        0.00000
REMARK 290   SMTRY3   7  0.000000  0.000000 -1.000000       54.25975
REMARK 290   SMTRY1   8  0.000000 -1.000000  0.000000        0.00000
REMARK 290   SMTRY2   8 -1.000000  0.000000  0.000000        0.00000
REMARK 290   SMTRY3   8  0.000000  0.000000 -1.000000      162.77925
REMARK 290                                                            
REMARK 290 REMARK: NULL                                               
CRYST1   42.735   42.735  217.039  90.00  90.00  90.00 P 43 2 2       


$$$$
XX01ZVNS2B-x3394-ASAP-0028904
  PyMOL3.0          3D                             0

 23 26  0  0  0  0  0  0  0  0999 V2000
  -10.7720    3.9600  -18.6360 Cl  0  0  0  0  0  0  0  0  0  0  0  0
   -9.5870    6.4280  -13.7200 C   0  0  0  0  0  0  0  0  0  0  0  0
   -9.9640    7.5120  -13.6020 N   0  0  0  0  0  0  0  0  0  0  0  0
   -9.1900    5.0050  -13.9320 C   0  0  0  0  0  0  0  0  0  0  0  0
   -8.3290    4.4500  -12.9060 N   0  0  0  0  0  0  0  0  0  0  0  0
   -8.6870    4.3580  -11.5560 C   0  0  0  0  0  0  0  0  0  0  0  0
   -9.2660    2.3390   -7.4410 N   0  0  0  0  0  0  0  0  0  0  0  0
   -8.4820    5.4750  -10.7360 C   0  0  0  0  0  0  0  0  0  0  0  0
   -5.8330    5.1020  -17.4380 N   0  0  0  0  0  0  0  0  0  0  0  0
   -8.6840    5.3850   -9.3720 C   0  0  0  0  0  0  0  0  0  0  0  0
   -5.2030    5.3590  -16.2570 N   0  0  0  0  0  0  0  0  0  0  0  0
   -9.0440    4.1590   -8.8240 C   0  0  0  0  0  0  0  0  0  0  0  0
   -9.2500    3.0470   -9.6320 C   0  0  0  0  0  0  0  0  0  0  0  0
   -9.0440    3.1190  -11.0040 C   0  0  0  0  0  0  0  0  0  0  0  0
   -9.6790    1.8890   -8.7780 C   0  0  0  0  0  0  0  0  0  0  0  0
   -9.3500    3.8050   -7.3970 C   0  0  0  0  0  0  0  0  0  0  0  0
   -8.7110    4.8090  -15.3600 C   0  0  0  0  0  0  0  0  0  0  0  0
   -9.6930    4.5020  -16.2780 C   0  0  0  0  0  0  0  0  0  0  0  0
   -9.4220    4.3810  -17.6310 C   0  0  0  0  0  0  0  0  0  0  0  0
   -8.1550    4.5430  -18.1580 C   0  0  0  0  0  0  0  0  0  0  0  0
   -7.1580    4.8980  -17.2470 C   0  0  0  0  0  0  0  0  0  0  0  0
   -6.1290    5.3300  -15.3120 C   0  0  0  0  0  0  0  0  0  0  0  0
   -7.4040    5.0420  -15.8620 C   0  0  0  0  0  0  0  0  0  0  0  0
  2  4  1  0  0  0  0
  2  3  3  0  0  0  0
  4  5  1  0  0  0  0
  4 17  1  0  0  0  0
  5  6  1  0  0  0  0
  6  8  4  0  0  0  0
  6 14  4  0  0  0  0
  7 16  1  0  0  0  0
  8 10  4  0  0  0  0
  9 11  4  0  0  0  0
 10 12  4  0  0  0  0
 11 22  4  0  0  0  0
 12 13  4  0  0  0  0
 12 16  1  0  0  0  0
 13 14  4  0  0  0  0
 13 15  1  0  0  0  0
  7 15  1  0  0  0  0
 17 18  4  0  0  0  0
 17 23  4  0  0  0  0
 18 19  4  0  0  0  0
  1 19  1  0  0  0  0
 19 20  4  0  0  0  0
 20 21  4  0  0  0  0
  9 21  4  0  0  0  0
 21 23  4  0  0  0  0
 22 23  4  0  0  0  0
M  END
>  <pdb_header>
REMARK --------------------- added by autoBUSTER ---------------------------------START
REMARK run at   = Mon Jul 22 13:53:43 BST 2024
REMARK     in   = /dls/labxchem/data/lb32627/lb32627-65/processing/analysis/model_building/XX01ZVNS2B-x3394
REMARK     user = kyf22269
REMARK     cmd  = \
REMARK            /dls_sw/apps/GPhL/BUSTER/20240123/autoBUSTER/bin/linux64/refine \
REMARK            -p \
REMARK            /dls/labxchem/data/lb32627/lb32627-65/processing/analysis/model_building/XX01ZVNS2B-x3394/cootOut/Refine_4/in.pdb \
REMARK            -m \
REMARK            /dls/labxchem/data/lb32627/lb32627-65/processing/analysis/model_building/XX01ZVNS2B-x3394/XX01ZVNS2B-x3394.free.mtz \
REMARK            -l \
REMARK            /dls/labxchem/data/lb32627/lb32627-65/processing/analysis/model_building/XX01ZVNS2B-x3394/ASAP-0028904-001.cif \
REMARK            -autoncs -M TLSbasic -d Refine_4
REMARK Files used:
REMARK   PDB              = Refine_4/pdbchk.pdb
REMARK   MTZ              = /dls/labxchem/data/lb32627/lb32627-65/processing/analysis/model_building/XX01ZVNS2B-x3394/XX01ZVNS2B-x3394.free.mtz
REMARK output written to subdirectory = Refine_4
REMARK best refinement for F,SIGF with R/Rfree 0.2239/0.2775
REMARK header records are copied from input PDB file (apart from REMARK 3!)
REMARK --------------------- added by autoBUSTER -----------------------------------END
REMARK --------------------- added by autoBUSTER -------------------------------
REMARK run at   = Thu Jul 18 18:28:45 BST 2024                                  
REMARK     in   = /dls/labxchem/data/lb32627/lb32627-65/processing/analysis/mode
REMARK     user = kyf22269                                                      
REMARK     cmd  = \                                                             
REMARK            /dls_sw/apps/GPhL/BUSTER/20240123/autoBUSTER/bin/linux64/refin
REMARK            -p \                                                          
REMARK            /dls/labxchem/data/lb32627/lb32627-65/processing/analysis/mode
REMARK            -m \                                                          
REMARK            /dls/labxchem/data/lb32627/lb32627-65/processing/analysis/mode
REMARK            -l \                                                          
REMARK            /dls/labxchem/data/lb32627/lb32627-65/processing/analysis/mode
REMARK            -autoncs -M TLSbasic -d Refine_3                              
REMARK Files used:                                                              
REMARK   PDB              = Refine_3/pdbchk.pdb                                 
REMARK   MTZ              = /dls/labxchem/data/lb32627/lb32627-65/processing/ana
REMARK output written to subdirectory = Refine_3                                
REMARK best refinement for F,SIGF with R/Rfree 0.2261/0.2826                    
REMARK header records are copied from input PDB file (apart from REMARK 3!)     
REMARK --------------------- added by autoBUSTER -------------------------------
REMARK --------------------- added by autoBUSTER -------------------------------
REMARK run at   = Thu Jul 18 18:05:40 BST 2024                                  
REMARK     in   = /dls/labxchem/data/lb32627/lb32627-65/processing/analysis/mode
REMARK     user = kyf22269                                                      
REMARK     cmd  = \                                                             
REMARK            /dls_sw/apps/GPhL/BUSTER/20240123/autoBUSTER/bin/linux64/refin
REMARK            -p \                                                          
REMARK            /dls/labxchem/data/lb32627/lb32627-65/processing/analysis/mode
REMARK            -m \                                                          
REMARK            /dls/labxchem/data/lb32627/lb32627-65/processing/analysis/mode
REMARK            -l \                                                          
REMARK            /dls/labxchem/data/lb32627/lb32627-65/processing/analysis/mode
REMARK            -autoncs -M TLSbasic -d Refine_2                              
REMARK Files used:                                                              
REMARK   PDB              = Refine_2/pdbchk.pdb                                 
REMARK   MTZ              = /dls/labxchem/data/lb32627/lb32627-65/processing/ana
REMARK output written to subdirectory = Refine_2                                
REMARK best refinement for F,SIGF with R/Rfree 0.2274/0.2760                    
REMARK header records are copied from input PDB file (apart from REMARK 3!)     
REMARK --------------------- added by autoBUSTER -------------------------------
REMARK --------------------- added by autoBUSTER -------------------------------
REMARK run at   = Thu Jul 18 17:36:09 BST 2024                                  
REMARK     in   = /dls/labxchem/data/lb32627/lb32627-65/processing/analysis/mode
REMARK     user = kyf22269                                                      
REMARK     cmd  = \                                                             
REMARK            /dls_sw/apps/GPhL/BUSTER/20240123/autoBUSTER/bin/linux64/refin
REMARK            -p \                                                          
REMARK            /dls/labxchem/data/lb32627/lb32627-65/processing/analysis/mode
REMARK            -m \                                                          
REMARK            /dls/labxchem/data/lb32627/lb32627-65/processing/analysis/mode
REMARK            -l \                                                          
REMARK            /dls/labxchem/data/lb32627/lb32627-65/processing/analysis/mode
REMARK            -autoncs -M TLSbasic -d Refine_1                              
REMARK Files used:                                                              
REMARK   PDB              = Refine_1/pdbchk.pdb                                 
REMARK   MTZ              = /dls/labxchem/data/lb32627/lb32627-65/processing/ana
REMARK output written to subdirectory = Refine_1                                
REMARK best refinement for F,SIGF with R/Rfree 0.2343/0.2813                    
REMARK header records are copied from input PDB file (apart from REMARK 3!)     
REMARK --------------------- added by autoBUSTER -------------------------------
HEADER    ----                                    23-FEB-23                     
TITLE     ---                                                                   
COMPND    ---                                                                   
EXPDTA    X-RAY DIFFRACTION
REMARK   2                                                            
REMARK   2 RESOLUTION.    2.02 ANGSTROMS.
REMARK   3
REMARK   3 REFINEMENT.
REMARK   3   PROGRAM     : BUSTER 2.10.4 (23-JAN-2024)
REMARK   3   AUTHORS     : BRICOGNE,BLANC,BRANDL,FLENSBURG,KELLER,
REMARK   3               : PACIOREK,ROVERSI,SHARFF,SMART,VONRHEIN,WOMACK;
REMARK   3               : MATTHEWS,TEN EYCK,TRONRUD
REMARK   3
REMARK   3  DATA USED IN REFINEMENT.
REMARK   3   RESOLUTION RANGE HIGH (ANGSTROMS) : 2.024
REMARK   3   RESOLUTION RANGE LOW  (ANGSTROMS) : 41.78
REMARK   3   DATA CUTOFF            (SIGMA(F)) : 0.000
REMARK   3   COMPLETENESS FOR RANGE        (%) : 97.7
REMARK   3   NUMBER OF REFLECTIONS             : 13651
REMARK   3
REMARK   3  FIT TO DATA USED IN REFINEMENT.
REMARK   3   CROSS-VALIDATION METHOD          : THROUGHOUT
REMARK   3   FREE R VALUE TEST SET SELECTION  : RANDOM
REMARK   3   R VALUE     (WORKING + TEST SET) : 0.2266
REMARK   3   R VALUE            (WORKING SET) : 0.2239
REMARK   3   FREE R VALUE                     : 0.2775
REMARK   3   FREE R VALUE TEST SET SIZE   (%) : 4.730
REMARK   3   FREE R VALUE TEST SET COUNT      : 646
REMARK   3   ESTIMATED ERROR OF FREE R VALUE  : NULL
REMARK   3
REMARK   3  FIT IN THE HIGHEST RESOLUTION BIN.
REMARK   3   TOTAL NUMBER OF BINS USED           : 33
REMARK   3   BIN RESOLUTION RANGE HIGH       (A) : 2.02
REMARK   3   BIN RESOLUTION RANGE LOW        (A) : 2.06
REMARK   3   BIN COMPLETENESS (WORKING+TEST) (%) : 70.23
REMARK   3   REFLECTIONS IN BIN   (WORKING+TEST) : 427
REMARK   3   BIN R VALUE          (WORKING+TEST) : 0.3863
REMARK   3   REFLECTIONS IN BIN    (WORKING SET) : 415
REMARK   3   BIN R VALUE           (WORKING SET) : 0.3884
REMARK   3   BIN FREE R VALUE                    : 0.3160
REMARK   3   BIN FREE R VALUE TEST SET SIZE  (%) : 2.81
REMARK   3   BIN FREE R VALUE TEST SET COUNT     : 12
REMARK   3   ESTIMATED ERROR OF BIN FREE R VALUE : NULL
REMARK   3
REMARK   3  NUMBER OF NON-HYDROGEN ATOMS USED IN REFINEMENT.
REMARK   3   PROTEIN ATOMS            : 1472
REMARK   3   NUCLEIC ACID ATOMS       : 0
REMARK   3   HETEROGEN ATOMS          : 31
REMARK   3   SOLVENT ATOMS            : 100
REMARK   3
REMARK   3  B VALUES.
REMARK   3   FROM WILSON PLOT           (A**2) : 40.96
REMARK   3   MEAN B VALUE      (OVERALL, A**2) : 51.52
REMARK   3   OVERALL ANISOTROPIC B VALUE.
REMARK   3    B11 (A**2) : -4.97910
REMARK   3    B22 (A**2) : -4.97910
REMARK   3    B33 (A**2) : 9.95820
REMARK   3    B12 (A**2) : 0.00000
REMARK   3    B13 (A**2) : 0.00000
REMARK   3    B23 (A**2) : 0.00000
REMARK   3
REMARK   3  ESTIMATED COORDINATE ERROR.
REMARK   3   ESD FROM LUZZATI PLOT                    (A) : 0.34
REMARK   3   DPI (BLOW EQ-10) BASED ON R VALUE        (A) : 0.244
REMARK   3   DPI (BLOW EQ-9) BASED ON FREE R VALUE    (A) : 0.204
REMARK   3   DPI (CRUICKSHANK) BASED ON R VALUE       (A) : 0.218
REMARK   3   DPI (CRUICKSHANK) BASED ON FREE R VALUE  (A) : 0.195
REMARK   3
REMARK   3   REFERENCES: BLOW, D. (2002) ACTA CRYST D58, 792-797
REMARK   3               CRUICKSHANK, D.W.J. (1999) ACTA CRYST D55, 583-601
REMARK   3
REMARK   3  CORRELATION COEFFICIENTS.
REMARK   3   CORRELATION COEFFICIENT FO-FC      : 0.943
REMARK   3   CORRELATION COEFFICIENT FO-FC FREE : 0.922
REMARK   3
REMARK   3  X-RAY WEIGHT : 6.33
REMARK   3
REMARK   3  GEOMETRY FUNCTION.                                                  
REMARK   3   RESTRAINT LIBRARIES.                                               
REMARK   3    NUMBER OF LIBRARIES USED :   9                                    
REMARK   3    LIBRARY  1 : protgeo_eh99.dat (V1.6.4.20) 20220523  STANDARD      
REMARK   3                 AMINO ACID DICTIONARY. BONDS AND ANGLES FROM         
REMARK   3                 ENGH AND HUBER EH99. OTHER VALUES BASED ON           
REMARK   3                 PREVIOUS TNT OR TAKEN FROM CCP4. INCLUDES            
REMARK   3                 HYDROGEN ATOMS.                                      
REMARK   3    LIBRARY  2 : exoticaa.dat (V1.3.4.17) 20231017  COLLECTION        
REMARK   3                 OF NON-STANDARD AMINO ACIDS, MAINLY EH91             
REMARK   3                 WITHOUT IDEAL DISTANCE INFO                          
REMARK   3    LIBRARY  3 : nuclgeo.dat (V1.13.4.9) 20221011                     
REMARK   3    LIBRARY  4 : bcorrel.dat (V1.15.10.2) 20190616                    
REMARK   3    LIBRARY  5 : contact.dat (V1.15.12.10) 20191121                   
REMARK   3    LIBRARY  6 : idealdist_contact.dat (V1.3.4.15) 20231124           
REMARK   3                 IDEAL-DISTANCE CONTACT TERM DATA AS USED IN          
REMARK   3                 PROLSQ. VALUES USED HERE ARE BASEd ON DATA           
REMARK   3                 HARVESTING OF PDB AS OF 20190109                     
REMARK   3    LIBRARY  7 : restraints for LIG from cif dictionary               
REMARK   3                 ASAP-0028904-001.cif                                 
REMARK   3    LIBRARY  8 : restraints for DMS (DIMETHYL SULFOXIDE) from         
REMARK   3                 cif dictionary DMS.cif; generated by grade2          
REMARK   3                 version 1.1.0a7 from                                 
REMARK   3                 PDB_chemical_components_definition_file              
REMARK   3                 ftp://ftp.ebi.ac.uk/pub/databases/msd/pdbechem_v     
REMARK   3                 2/D/DMS/DMS.cif using RDKit 2021.03.4                
REMARK   3                 ((DatabaseID PDB-DMS))                               
REMARK   3    LIBRARY  9 : assume.dat (V1.9.4.3) 20221011                       
REMARK   3                                                                      
REMARK   3   NUMBER OF GEOMETRIC FUNCTION TERMS DEFINED : 15                    
REMARK   3   TERM                          COUNT    WEIGHT   FUNCTION.          
REMARK   3    BOND LENGTHS              :   1566 ;   2.00 ;  HARMONIC           
REMARK   3    BOND ANGLES               :   2131 ;   2.00 ;  HARMONIC           
REMARK   3    TORSION ANGLES            :    533 ;   2.00 ;  SINUSOIDAL         
REMARK   3    TRIGONAL CARBON PLANES    :   NULL ;   NULL ;  NULL               
REMARK   3    GENERAL PLANES            :    267 ;   5.00 ;  HARMONIC           
REMARK   3    ISOTROPIC THERMAL FACTORS :   1566 ;  10.00 ;  HARMONIC           
REMARK   3    BAD NON-BONDED CONTACTS   :      0 ;   5.00 ;  SEMIHARMONIC       
REMARK   3    IMPROPER TORSIONS         :   NULL ;   NULL ;  NULL               
REMARK   3    PSEUDOROTATION ANGLES     :   NULL ;   NULL ;  NULL               
REMARK   3    CHIRAL IMPROPER TORSION   :    196 ;   5.00 ;  SEMIHARMONIC       
REMARK   3    SUM OF OCCUPANCIES        :   NULL ;   NULL ;  NULL               
REMARK   3    UTILITY DISTANCES         :   NULL ;   NULL ;  NULL               
REMARK   3    UTILITY ANGLES            :   NULL ;   NULL ;  NULL               
REMARK   3    UTILITY TORSION           :   NULL ;   NULL ;  NULL               
REMARK   3    IDEAL-DIST CONTACT TERM   :   1206 ;   4.00 ;  SEMIHARMONIC       
REMARK   3                                                                      
REMARK   3   RMS DEVIATIONS FROM IDEAL VALUES.                                  
REMARK   3   BOND LENGTHS                       (A) : 0.008                     
REMARK   3   BOND ANGLES                  (DEGREES) : 0.99                      
REMARK   3   PEPTIDE OMEGA TORSION ANGLES (DEGREES) : 3.32                      
REMARK   3   OTHER TORSION ANGLES         (DEGREES) : 18.62                     
REMARK   3                                                                      
REMARK   3   SIMILARITY.                                                        
REMARK   3    NCS.                                                              
REMARK   3     NCS METHOD: NONE                                                 
REMARK   3    TARGET RESTRAINTS.                                                
REMARK   3     TARGET REPRESENTATION : NONE                                     
REMARK   3     TARGET STRUCTURE : NULL                                          
REMARK   3                                                                      
REMARK   3  TLS DETAILS.                                                        
REMARK   3   NUMBER OF TLS GROUPS  :            2                               
REMARK   3                                                                      
REMARK   3   TLS GROUP :            1                                           
REMARK   3    SET : { A|* }                                                     
REMARK   3    ORIGIN FOR THE GROUP (A):  -13.7556   -1.7961  -19.4719           
REMARK   3    T TENSOR                                                          
REMARK   3     T11:   -0.0827 T22:   -0.1038                                    
REMARK   3     T33:   -0.2642 T12:    0.1661                                    
REMARK   3     T13:    0.1587 T23:    0.1474                                    
REMARK   3    L TENSOR                                                          
REMARK   3     L11:    4.4713 L22:    5.0148                                    
REMARK   3     L33:    4.2656 L12:   -2.3955                                    
REMARK   3     L13:    0.5349 L23:    1.2047                                    
REMARK   3    S TENSOR                                                          
REMARK   3     S11:    0.4801 S12:    0.5260 S13:    0.3748                     
REMARK   3     S21:   -0.5881 S22:   -0.5057 S23:   -0.4654                     
REMARK   3     S31:   -0.0143 S32:    0.3938 S33:    0.0256                     
REMARK   3                                                                      
REMARK   3   TLS GROUP :            2                                           
REMARK   3    SET : { B|* }                                                     
REMARK   3    ORIGIN FOR THE GROUP (A):  -18.4049    0.6921  -15.6408           
REMARK   3    T TENSOR                                                          
REMARK   3     T11:    0.0769 T22:    0.0114                                    
REMARK   3     T33:   -0.0830 T12:    0.1874                                    
REMARK   3     T13:    0.0379 T23:    0.0372                                    
REMARK   3    L TENSOR                                                          
REMARK   3     L11:    1.9322 L22:    1.5978                                    
REMARK   3     L33:    2.4087 L12:   -0.6972                                    
REMARK   3     L13:    0.4282 L23:   -0.2571                                    
REMARK   3    S TENSOR                                                          
REMARK   3     S11:    0.3523 S12:    0.1489 S13:    0.0777                     
REMARK   3     S21:   -0.1859 S22:   -0.3560 S23:    0.0195                     
REMARK   3     S31:    0.1832 S32:    0.2094 S33:    0.0038                     
REMARK   3                                                                      
REMARK   3  REFINEMENT NOTES.                                                   
REMARK   3   NUMBER OF REFINEMENT NOTES :   1                                   
REMARK   3   NOTE   1 :  IDEAL-DIST CONTACT TERM CONTACT SETUP. RESIDUE         
REMARK   3               TYPES WITHOUT CCP4 ATOM TYPE IN LIBRARY=. NUMBER       
REMARK   3               OF ATOMS WITH PROPER CCP4 ATOM TYPE=1630. NUMBER       
REMARK   3               WITH APPROX DEFAULT CCP4 ATOM TYPE=0. NUMBER           
REMARK   3               TREATED BY BAD NON-BONDED CONTACTS=1.                  
REMARK   3
REMARK   3  OTHER REFINEMENT REMARKS: NULL
REMARK   3
REMARK 290                                                            
REMARK 290 CRYSTALLOGRAPHIC SYMMETRY                                  
REMARK 290 SYMMETRY OPERATORS FOR SPACE GROUP: P 43 2 2               
REMARK 290                                                            
REMARK 290      SYMOP   SYMMETRY                                      
REMARK 290     NNNMMM   OPERATOR                                      
REMARK 290       1555   X,Y,Z                                         
REMARK 290       2555   -X,-Y,1/2+Z                                   
REMARK 290       3555   -Y,X,3/4+Z                                    
REMARK 290       4555   Y,-X,1/4+Z                                    
REMARK 290       5555   -X,Y,-Z                                       
REMARK 290       6555   X,-Y,1/2-Z                                    
REMARK 290       7555   Y,X,1/4-Z                                     
REMARK 290       8555   -Y,-X,3/4-Z                                   
REMARK 290                                                            
REMARK 290     WHERE NNN -> OPERATOR NUMBER                           
REMARK 290           MMM -> TRANSLATION VECTOR                        
REMARK 290                                                            
REMARK 290 CRYSTALLOGRAPHIC SYMMETRY TRANSFORMATIONS                  
REMARK 290 THE FOLLOWING TRANSFORMATIONS OPERATE ON THE ATOM/HETATM   
REMARK 290 RECORDS IN THIS ENTRY TO PRODUCE CRYSTALLOGRAPHICALLY      
REMARK 290 RELATED MOLECULES.                                         
REMARK 290   SMTRY1   1  1.000000  0.000000  0.000000        0.00000
REMARK 290   SMTRY2   1  0.000000  1.000000  0.000000        0.00000
REMARK 290   SMTRY3   1  0.000000  0.000000  1.000000        0.00000
REMARK 290   SMTRY1   2 -1.000000  0.000000  0.000000        0.00000
REMARK 290   SMTRY2   2  0.000000 -1.000000  0.000000        0.00000
REMARK 290   SMTRY3   2  0.000000  0.000000  1.000000      108.47850
REMARK 290   SMTRY1   3  0.000000 -1.000000  0.000000        0.00000
REMARK 290   SMTRY2   3  1.000000  0.000000  0.000000        0.00000
REMARK 290   SMTRY3   3  0.000000  0.000000  1.000000      162.71775
REMARK 290   SMTRY1   4  0.000000  1.000000  0.000000        0.00000
REMARK 290   SMTRY2   4 -1.000000  0.000000  0.000000        0.00000
REMARK 290   SMTRY3   4  0.000000  0.000000  1.000000       54.23925
REMARK 290   SMTRY1   5 -1.000000  0.000000  0.000000        0.00000
REMARK 290   SMTRY2   5  0.000000  1.000000  0.000000        0.00000
REMARK 290   SMTRY3   5  0.000000  0.000000 -1.000000        0.00000
REMARK 290   SMTRY1   6  1.000000  0.000000  0.000000        0.00000
REMARK 290   SMTRY2   6  0.000000 -1.000000  0.000000        0.00000
REMARK 290   SMTRY3   6  0.000000  0.000000 -1.000000      108.47850
REMARK 290   SMTRY1   7  0.000000  1.000000  0.000000        0.00000
REMARK 290   SMTRY2   7  1.000000  0.000000  0.000000        0.00000
REMARK 290   SMTRY3   7  0.000000  0.000000 -1.000000       54.23925
REMARK 290   SMTRY1   8  0.000000 -1.000000  0.000000        0.00000
REMARK 290   SMTRY2   8 -1.000000  0.000000  0.000000        0.00000
REMARK 290   SMTRY3   8  0.000000  0.000000 -1.000000      162.71775
REMARK 290                                                            
REMARK 290 REMARK: NULL                                               
CRYST1   42.581   42.581  216.957  90.00  90.00  90.00 P 43 2 2       


$$$$
XX01ZVNS2B-x3397-ASAP-0029000
  PyMOL3.0          3D                             0

 27 30  0  0  0  0  0  0  0  0999 V2000
  -10.5450    3.8870  -18.1280 Cl  0  0  0  0  0  0  0  0  0  0  0  0
   -4.5430    3.6880  -11.7230 C   0  0  0  0  0  0  0  0  0  0  0  0
   -6.0790    2.2460  -12.9410 N   0  0  0  0  0  0  0  0  0  0  0  0
   -7.9300    1.6000  -14.0400 O   0  0  0  0  0  0  0  0  0  0  0  0
   -4.8720    3.0620  -13.0640 C   0  0  0  0  0  0  0  0  0  0  0  0
   -8.6880    4.3480  -12.8690 N   0  0  0  0  0  0  0  0  0  0  0  0
   -3.7430    2.1940  -13.5820 C   0  0  0  0  0  0  0  0  0  0  0  0
   -8.2750    3.5010   -6.9900 N   0  0  0  0  0  0  0  0  0  0  0  0
   -7.2080    2.4880  -13.6070 C   0  0  0  0  0  0  0  0  0  0  0  0
   -5.5220    5.1060  -17.8670 N   0  0  0  0  0  0  0  0  0  0  0  0
   -7.5950    3.9710  -13.7490 C   0  0  0  0  0  0  0  0  0  0  0  0
   -4.6140    5.1870  -16.8550 N   0  0  0  0  0  0  0  0  0  0  0  0
   -8.8200    3.8570  -11.5710 C   0  0  0  0  0  0  0  0  0  0  0  0
   -9.2600    2.5360  -11.3830 C   0  0  0  0  0  0  0  0  0  0  0  0
   -9.3670    1.9940  -10.1160 C   0  0  0  0  0  0  0  0  0  0  0  0
   -9.0360    2.7780   -9.0230 C   0  0  0  0  0  0  0  0  0  0  0  0
   -8.6400    4.0990   -9.1900 C   0  0  0  0  0  0  0  0  0  0  0  0
   -8.4990    4.6520  -10.4600 C   0  0  0  0  0  0  0  0  0  0  0  0
   -8.3850    4.7020   -7.8380 C   0  0  0  0  0  0  0  0  0  0  0  0
   -9.1350    2.4580   -7.5600 C   0  0  0  0  0  0  0  0  0  0  0  0
   -7.7570    4.2600  -15.2360 C   0  0  0  0  0  0  0  0  0  0  0  0
   -8.9480    4.0090  -15.9170 C   0  0  0  0  0  0  0  0  0  0  0  0
   -9.0300    4.1710  -17.3070 C   0  0  0  0  0  0  0  0  0  0  0  0
   -7.9430    4.5470  -18.0730 C   0  0  0  0  0  0  0  0  0  0  0  0
   -6.7440    4.7580  -17.4000 C   0  0  0  0  0  0  0  0  0  0  0  0
   -5.2590    4.8810  -15.7420 C   0  0  0  0  0  0  0  0  0  0  0  0
   -6.6230    4.6080  -16.0080 C   0  0  0  0  0  0  0  0  0  0  0  0
  2  5  1  0  0  0  0
  3  9  1  0  0  0  0
  3  5  1  0  0  0  0
  5  7  1  0  0  0  0
  6 13  1  0  0  0  0
  8 20  1  0  0  0  0
  4  9  2  0  0  0  0
  9 11  1  0  0  0  0
 10 12  4  0  0  0  0
  6 11  1  0  0  0  0
 11 21  1  0  0  0  0
 12 26  4  0  0  0  0
 13 14  4  0  0  0  0
 13 18  4  0  0  0  0
 14 15  4  0  0  0  0
 15 16  4  0  0  0  0
 16 17  4  0  0  0  0
 16 20  1  0  0  0  0
 17 18  4  0  0  0  0
 17 19  1  0  0  0  0
  8 19  1  0  0  0  0
 21 22  4  0  0  0  0
 21 27  4  0  0  0  0
 22 23  4  0  0  0  0
  1 23  1  0  0  0  0
 23 24  4  0  0  0  0
 24 25  4  0  0  0  0
 10 25  4  0  0  0  0
 25 27  4  0  0  0  0
 26 27  4  0  0  0  0
M  END
>  <pdb_header>
REMARK --------------------- added by autoBUSTER ---------------------------------START
REMARK run at   = Mon Jul 22 15:00:24 BST 2024
REMARK     in   = /dls/labxchem/data/lb32627/lb32627-65/processing/analysis/model_building/XX01ZVNS2B-x3397
REMARK     user = kyf22269
REMARK     cmd  = \
REMARK            /dls_sw/apps/GPhL/BUSTER/20240123/autoBUSTER/bin/linux64/refine \
REMARK            -p \
REMARK            /dls/labxchem/data/lb32627/lb32627-65/processing/analysis/model_building/XX01ZVNS2B-x3397/cootOut/Refine_4/in.pdb \
REMARK            -m \
REMARK            /dls/labxchem/data/lb32627/lb32627-65/processing/analysis/model_building/XX01ZVNS2B-x3397/XX01ZVNS2B-x3397.free.mtz \
REMARK            -l \
REMARK            /dls/labxchem/data/lb32627/lb32627-65/processing/analysis/model_building/XX01ZVNS2B-x3397/ASAP-0029000-001.cif \
REMARK            -autoncs -M TLSbasic -d Refine_4
REMARK Files used:
REMARK   PDB              = Refine_4/pdbchk.pdb
REMARK   MTZ              = /dls/labxchem/data/lb32627/lb32627-65/processing/analysis/model_building/XX01ZVNS2B-x3397/XX01ZVNS2B-x3397.free.mtz
REMARK output written to subdirectory = Refine_4
REMARK best refinement for F,SIGF with R/Rfree 0.2166/0.2911
REMARK header records are copied from input PDB file (apart from REMARK 3!)
REMARK --------------------- added by autoBUSTER -----------------------------------END
REMARK --------------------- added by autoBUSTER -------------------------------
REMARK run at   = Mon Jul 22 14:19:56 BST 2024                                  
REMARK     in   = /dls/labxchem/data/lb32627/lb32627-65/processing/analysis/mode
REMARK     user = kyf22269                                                      
REMARK     cmd  = \                                                             
REMARK            /dls_sw/apps/GPhL/BUSTER/20240123/autoBUSTER/bin/linux64/refin
REMARK            -p \                                                          
REMARK            /dls/labxchem/data/lb32627/lb32627-65/processing/analysis/mode
REMARK            -m \                                                          
REMARK            /dls/labxchem/data/lb32627/lb32627-65/processing/analysis/mode
REMARK            -l \                                                          
REMARK            /dls/labxchem/data/lb32627/lb32627-65/processing/analysis/mode
REMARK            -autoncs -M TLSbasic -d Refine_3                              
REMARK Files used:                                                              
REMARK   PDB              = Refine_3/pdbchk.pdb                                 
REMARK   MTZ              = /dls/labxchem/data/lb32627/lb32627-65/processing/ana
REMARK output written to subdirectory = Refine_3                                
REMARK best refinement for F,SIGF with R/Rfree 0.2195/0.2918                    
REMARK header records are copied from input PDB file (apart from REMARK 3!)     
REMARK --------------------- added by autoBUSTER -------------------------------
REMARK --------------------- added by autoBUSTER -------------------------------
REMARK run at   = Thu Jul 18 18:32:46 BST 2024                                  
REMARK     in   = /dls/labxchem/data/lb32627/lb32627-65/processing/analysis/mode
REMARK     user = kyf22269                                                      
REMARK     cmd  = \                                                             
REMARK            /dls_sw/apps/GPhL/BUSTER/20240123/autoBUSTER/bin/linux64/refin
REMARK            -p \                                                          
REMARK            /dls/labxchem/data/lb32627/lb32627-65/processing/analysis/mode
REMARK            -m \                                                          
REMARK            /dls/labxchem/data/lb32627/lb32627-65/processing/analysis/mode
REMARK            -l \                                                          
REMARK            /dls/labxchem/data/lb32627/lb32627-65/processing/analysis/mode
REMARK            -autoncs -M TLSbasic -d Refine_2                              
REMARK Files used:                                                              
REMARK   PDB              = Refine_2/pdbchk.pdb                                 
REMARK   MTZ              = /dls/labxchem/data/lb32627/lb32627-65/processing/ana
REMARK output written to subdirectory = Refine_2                                
REMARK best refinement for F,SIGF with R/Rfree 0.2132/0.2982                    
REMARK header records are copied from input PDB file (apart from REMARK 3!)     
REMARK --------------------- added by autoBUSTER -------------------------------
REMARK --------------------- added by autoBUSTER -------------------------------
REMARK run at   = Thu Jul 18 18:12:41 BST 2024                                  
REMARK     in   = /dls/labxchem/data/lb32627/lb32627-65/processing/analysis/mode
REMARK     user = kyf22269                                                      
REMARK     cmd  = \                                                             
REMARK            /dls_sw/apps/GPhL/BUSTER/20240123/autoBUSTER/bin/linux64/refin
REMARK            -p \                                                          
REMARK            /dls/labxchem/data/lb32627/lb32627-65/processing/analysis/mode
REMARK            -m \                                                          
REMARK            /dls/labxchem/data/lb32627/lb32627-65/processing/analysis/mode
REMARK            -l \                                                          
REMARK            /dls/labxchem/data/lb32627/lb32627-65/processing/analysis/mode
REMARK            -autoncs -M TLSbasic -d Refine_1                              
REMARK Files used:                                                              
REMARK   PDB              = Refine_1/pdbchk.pdb                                 
REMARK   MTZ              = /dls/labxchem/data/lb32627/lb32627-65/processing/ana
REMARK output written to subdirectory = Refine_1                                
REMARK best refinement for F,SIGF with R/Rfree 0.2193/0.2888                    
REMARK header records are copied from input PDB file (apart from REMARK 3!)     
REMARK --------------------- added by autoBUSTER -------------------------------
HEADER    ----                                    23-FEB-23                     
TITLE     ---                                                                   
COMPND    ---                                                                   
EXPDTA    X-RAY DIFFRACTION
REMARK   2                                                            
REMARK   2 RESOLUTION.    2.60 ANGSTROMS.
REMARK   3
REMARK   3 REFINEMENT.
REMARK   3   PROGRAM     : BUSTER 2.10.4 (23-JAN-2024)
REMARK   3   AUTHORS     : BRICOGNE,BLANC,BRANDL,FLENSBURG,KELLER,
REMARK   3               : PACIOREK,ROVERSI,SHARFF,SMART,VONRHEIN,WOMACK;
REMARK   3               : MATTHEWS,TEN EYCK,TRONRUD
REMARK   3
REMARK   3  DATA USED IN REFINEMENT.
REMARK   3   RESOLUTION RANGE HIGH (ANGSTROMS) : 2.603
REMARK   3   RESOLUTION RANGE LOW  (ANGSTROMS) : 54.09
REMARK   3   DATA CUTOFF            (SIGMA(F)) : 0.000
REMARK   3   COMPLETENESS FOR RANGE        (%) : 99.9
REMARK   3   NUMBER OF REFLECTIONS             : 6781
REMARK   3
REMARK   3  FIT TO DATA USED IN REFINEMENT.
REMARK   3   CROSS-VALIDATION METHOD          : THROUGHOUT
REMARK   3   FREE R VALUE TEST SET SELECTION  : RANDOM
REMARK   3   R VALUE     (WORKING + TEST SET) : 0.2204
REMARK   3   R VALUE            (WORKING SET) : 0.2166
REMARK   3   FREE R VALUE                     : 0.2911
REMARK   3   FREE R VALUE TEST SET SIZE   (%) : 4.820
REMARK   3   FREE R VALUE TEST SET COUNT      : 327
REMARK   3   ESTIMATED ERROR OF FREE R VALUE  : NULL
REMARK   3
REMARK   3  FIT IN THE HIGHEST RESOLUTION BIN.
REMARK   3   TOTAL NUMBER OF BINS USED           : 17
REMARK   3   BIN RESOLUTION RANGE HIGH       (A) : 2.60
REMARK   3   BIN RESOLUTION RANGE LOW        (A) : 2.66
REMARK   3   BIN COMPLETENESS (WORKING+TEST) (%) : 99.30
REMARK   3   REFLECTIONS IN BIN   (WORKING+TEST) : 424
REMARK   3   BIN R VALUE          (WORKING+TEST) : 0.3267
REMARK   3   REFLECTIONS IN BIN    (WORKING SET) : 403
REMARK   3   BIN R VALUE           (WORKING SET) : 0.3238
REMARK   3   BIN FREE R VALUE                    : 0.3879
REMARK   3   BIN FREE R VALUE TEST SET SIZE  (%) : 4.95
REMARK   3   BIN FREE R VALUE TEST SET COUNT     : 21
REMARK   3   ESTIMATED ERROR OF BIN FREE R VALUE : NULL
REMARK   3
REMARK   3  NUMBER OF NON-HYDROGEN ATOMS USED IN REFINEMENT.
REMARK   3   PROTEIN ATOMS            : 1476
REMARK   3   NUCLEIC ACID ATOMS       : 0
REMARK   3   HETEROGEN ATOMS          : 31
REMARK   3   SOLVENT ATOMS            : 46
REMARK   3
REMARK   3  B VALUES.
REMARK   3   FROM WILSON PLOT           (A**2) : 60.63
REMARK   3   MEAN B VALUE      (OVERALL, A**2) : 53.21
REMARK   3   OVERALL ANISOTROPIC B VALUE.
REMARK   3    B11 (A**2) : -6.75890
REMARK   3    B22 (A**2) : -6.75890
REMARK   3    B33 (A**2) : 13.51770
REMARK   3    B12 (A**2) : 0.00000
REMARK   3    B13 (A**2) : 0.00000
REMARK   3    B23 (A**2) : 0.00000
REMARK   3
REMARK   3  ESTIMATED COORDINATE ERROR.
REMARK   3   ESD FROM LUZZATI PLOT                    (A) : 0.34
REMARK   3   DPI (BLOW EQ-9) BASED ON FREE R VALUE    (A) : 0.379
REMARK   3   DPI (CRUICKSHANK) BASED ON R VALUE       (A) : 1.013
REMARK   3   DPI (CRUICKSHANK) BASED ON FREE R VALUE  (A) : 0.364
REMARK   3
REMARK   3   REFERENCES: BLOW, D. (2002) ACTA CRYST D58, 792-797
REMARK   3               CRUICKSHANK, D.W.J. (1999) ACTA CRYST D55, 583-601
REMARK   3
REMARK   3  CORRELATION COEFFICIENTS.
REMARK   3   CORRELATION COEFFICIENT FO-FC      : 0.926
REMARK   3   CORRELATION COEFFICIENT FO-FC FREE : 0.873
REMARK   3
REMARK   3  X-RAY WEIGHT : 6.95
REMARK   3
REMARK   3  GEOMETRY FUNCTION.                                                  
REMARK   3   RESTRAINT LIBRARIES.                                               
REMARK   3    NUMBER OF LIBRARIES USED :   9                                    
REMARK   3    LIBRARY  1 : protgeo_eh99.dat (V1.6.4.20) 20220523  STANDARD      
REMARK   3                 AMINO ACID DICTIONARY. BONDS AND ANGLES FROM         
REMARK   3                 ENGH AND HUBER EH99. OTHER VALUES BASED ON           
REMARK   3                 PREVIOUS TNT OR TAKEN FROM CCP4. INCLUDES            
REMARK   3                 HYDROGEN ATOMS.                                      
REMARK   3    LIBRARY  2 : exoticaa.dat (V1.3.4.17) 20231017  COLLECTION        
REMARK   3                 OF NON-STANDARD AMINO ACIDS, MAINLY EH91             
REMARK   3                 WITHOUT IDEAL DISTANCE INFO                          
REMARK   3    LIBRARY  3 : nuclgeo.dat (V1.13.4.9) 20221011                     
REMARK   3    LIBRARY  4 : bcorrel.dat (V1.15.10.2) 20190616                    
REMARK   3    LIBRARY  5 : contact.dat (V1.15.12.10) 20191121                   
REMARK   3    LIBRARY  6 : idealdist_contact.dat (V1.3.4.15) 20231124           
REMARK   3                 IDEAL-DISTANCE CONTACT TERM DATA AS USED IN          
REMARK   3                 PROLSQ. VALUES USED HERE ARE BASEd ON DATA           
REMARK   3                 HARVESTING OF PDB AS OF 20190109                     
REMARK   3    LIBRARY  7 : restraints for LIG from cif dictionary               
REMARK   3                 ASAP-0029000-001.cif                                 
REMARK   3    LIBRARY  8 : restraints for DMS (DIMETHYL SULFOXIDE) from         
REMARK   3                 cif dictionary DMS.cif; generated by grade2          
REMARK   3                 version 1.1.0a7 from                                 
REMARK   3                 PDB_chemical_components_definition_file              
REMARK   3                 ftp://ftp.ebi.ac.uk/pub/databases/msd/pdbechem_v     
REMARK   3                 2/D/DMS/DMS.cif using RDKit 2021.03.4                
REMARK   3                 ((DatabaseID PDB-DMS))                               
REMARK   3    LIBRARY  9 : assume.dat (V1.9.4.3) 20221011                       
REMARK   3                                                                      
REMARK   3   NUMBER OF GEOMETRIC FUNCTION TERMS DEFINED : 15                    
REMARK   3   TERM                          COUNT    WEIGHT   FUNCTION.          
REMARK   3    BOND LENGTHS              :   1563 ;   2.00 ;  HARMONIC           
REMARK   3    BOND ANGLES               :   2126 ;   2.00 ;  HARMONIC           
REMARK   3    TORSION ANGLES            :    534 ;   2.00 ;  SINUSOIDAL         
REMARK   3    TRIGONAL CARBON PLANES    :   NULL ;   NULL ;  NULL               
REMARK   3    GENERAL PLANES            :    267 ;   5.00 ;  HARMONIC           
REMARK   3    ISOTROPIC THERMAL FACTORS :   1563 ;  10.00 ;  HARMONIC           
REMARK   3    BAD NON-BONDED CONTACTS   :      0 ;   5.00 ;  SEMIHARMONIC       
REMARK   3    IMPROPER TORSIONS         :   NULL ;   NULL ;  NULL               
REMARK   3    PSEUDOROTATION ANGLES     :   NULL ;   NULL ;  NULL               
REMARK   3    CHIRAL IMPROPER TORSION   :    194 ;   5.00 ;  SEMIHARMONIC       
REMARK   3    SUM OF OCCUPANCIES        :   NULL ;   NULL ;  NULL               
REMARK   3    UTILITY DISTANCES         :   NULL ;   NULL ;  NULL               
REMARK   3    UTILITY ANGLES            :   NULL ;   NULL ;  NULL               
REMARK   3    UTILITY TORSION           :   NULL ;   NULL ;  NULL               
REMARK   3    IDEAL-DIST CONTACT TERM   :   1164 ;   4.00 ;  SEMIHARMONIC       
REMARK   3                                                                      
REMARK   3   RMS DEVIATIONS FROM IDEAL VALUES.                                  
REMARK   3   BOND LENGTHS                       (A) : 0.007                     
REMARK   3   BOND ANGLES                  (DEGREES) : 0.89                      
REMARK   3   PEPTIDE OMEGA TORSION ANGLES (DEGREES) : 2.72                      
REMARK   3   OTHER TORSION ANGLES         (DEGREES) : 18.60                     
REMARK   3                                                                      
REMARK   3   SIMILARITY.                                                        
REMARK   3    NCS.                                                              
REMARK   3     NCS METHOD: NONE                                                 
REMARK   3    TARGET RESTRAINTS.                                                
REMARK   3     TARGET REPRESENTATION : NONE                                     
REMARK   3     TARGET STRUCTURE : NULL                                          
REMARK   3                                                                      
REMARK   3  TLS DETAILS.                                                        
REMARK   3   NUMBER OF TLS GROUPS  :            2                               
REMARK   3                                                                      
REMARK   3   TLS GROUP :            1                                           
REMARK   3    SET : { A|* }                                                     
REMARK   3    ORIGIN FOR THE GROUP (A):  -13.1663   -2.2154  -19.1554           
REMARK   3    T TENSOR                                                          
REMARK   3     T11:   -0.1743 T22:   -0.1463                                    
REMARK   3     T33:   -0.2842 T12:    0.1753                                    
REMARK   3     T13:    0.1655 T23:    0.0739                                    
REMARK   3    L TENSOR                                                          
REMARK   3     L11:    5.3635 L22:    5.4096                                    
REMARK   3     L33:    5.4907 L12:   -2.0116                                    
REMARK   3     L13:    1.3727 L23:    0.0704                                    
REMARK   3    S TENSOR                                                          
REMARK   3     S11:    0.4160 S12:    0.5848 S13:    0.2754                     
REMARK   3     S21:   -0.5229 S22:   -0.3674 S23:   -0.3524                     
REMARK   3     S31:   -0.2504 S32:    0.7131 S33:   -0.0486                     
REMARK   3                                                                      
REMARK   3   TLS GROUP :            2                                           
REMARK   3    SET : { B|* }                                                     
REMARK   3    ORIGIN FOR THE GROUP (A):  -18.2027    0.3101  -15.6098           
REMARK   3    T TENSOR                                                          
REMARK   3     T11:    0.0159 T22:   -0.0459                                    
REMARK   3     T33:   -0.0788 T12:    0.1978                                    
REMARK   3     T13:    0.0462 T23:    0.0737                                    
REMARK   3    L TENSOR                                                          
REMARK   3     L11:    2.8872 L22:    2.5557                                    
REMARK   3     L33:    2.9051 L12:   -1.0121                                    
REMARK   3     L13:    0.4646 L23:   -0.1259                                    
REMARK   3    S TENSOR                                                          
REMARK   3     S11:    0.4117 S12:    0.1762 S13:    0.1543                     
REMARK   3     S21:   -0.2101 S22:   -0.4067 S23:    0.0464                     
REMARK   3     S31:    0.0386 S32:    0.0923 S33:   -0.0050                     
REMARK   3                                                                      
REMARK   3  REFINEMENT NOTES.                                                   
REMARK   3   NUMBER OF REFINEMENT NOTES :   1                                   
REMARK   3   NOTE   1 :  IDEAL-DIST CONTACT TERM CONTACT SETUP. RESIDUE         
REMARK   3               TYPES WITHOUT CCP4 ATOM TYPE IN LIBRARY=. NUMBER       
REMARK   3               OF ATOMS WITH PROPER CCP4 ATOM TYPE=1573. NUMBER       
REMARK   3               WITH APPROX DEFAULT CCP4 ATOM TYPE=0. NUMBER           
REMARK   3               TREATED BY BAD NON-BONDED CONTACTS=1.                  
REMARK   3
REMARK   3  OTHER REFINEMENT REMARKS: NULL
REMARK   3
REMARK 290                                                            
REMARK 290 CRYSTALLOGRAPHIC SYMMETRY                                  
REMARK 290 SYMMETRY OPERATORS FOR SPACE GROUP: P 43 2 2               
REMARK 290                                                            
REMARK 290      SYMOP   SYMMETRY                                      
REMARK 290     NNNMMM   OPERATOR                                      
REMARK 290       1555   X,Y,Z                                         
REMARK 290       2555   -X,-Y,1/2+Z                                   
REMARK 290       3555   -Y,X,3/4+Z                                    
REMARK 290       4555   Y,-X,1/4+Z                                    
REMARK 290       5555   -X,Y,-Z                                       
REMARK 290       6555   X,-Y,1/2-Z                                    
REMARK 290       7555   Y,X,1/4-Z                                     
REMARK 290       8555   -Y,-X,3/4-Z                                   
REMARK 290                                                            
REMARK 290     WHERE NNN -> OPERATOR NUMBER                           
REMARK 290           MMM -> TRANSLATION VECTOR                        
REMARK 290                                                            
REMARK 290 CRYSTALLOGRAPHIC SYMMETRY TRANSFORMATIONS                  
REMARK 290 THE FOLLOWING TRANSFORMATIONS OPERATE ON THE ATOM/HETATM   
REMARK 290 RECORDS IN THIS ENTRY TO PRODUCE CRYSTALLOGRAPHICALLY      
REMARK 290 RELATED MOLECULES.                                         
REMARK 290   SMTRY1   1  1.000000  0.000000  0.000000        0.00000
REMARK 290   SMTRY2   1  0.000000  1.000000  0.000000        0.00000
REMARK 290   SMTRY3   1  0.000000  0.000000  1.000000        0.00000
REMARK 290   SMTRY1   2 -1.000000  0.000000  0.000000        0.00000
REMARK 290   SMTRY2   2  0.000000 -1.000000  0.000000        0.00000
REMARK 290   SMTRY3   2  0.000000  0.000000  1.000000      108.17150
REMARK 290   SMTRY1   3  0.000000 -1.000000  0.000000        0.00000
REMARK 290   SMTRY2   3  1.000000  0.000000  0.000000        0.00000
REMARK 290   SMTRY3   3  0.000000  0.000000  1.000000      162.25725
REMARK 290   SMTRY1   4  0.000000  1.000000  0.000000        0.00000
REMARK 290   SMTRY2   4 -1.000000  0.000000  0.000000        0.00000
REMARK 290   SMTRY3   4  0.000000  0.000000  1.000000       54.08575
REMARK 290   SMTRY1   5 -1.000000  0.000000  0.000000        0.00000
REMARK 290   SMTRY2   5  0.000000  1.000000  0.000000        0.00000
REMARK 290   SMTRY3   5  0.000000  0.000000 -1.000000        0.00000
REMARK 290   SMTRY1   6  1.000000  0.000000  0.000000        0.00000
REMARK 290   SMTRY2   6  0.000000 -1.000000  0.000000        0.00000
REMARK 290   SMTRY3   6  0.000000  0.000000 -1.000000      108.17150
REMARK 290   SMTRY1   7  0.000000  1.000000  0.000000        0.00000
REMARK 290   SMTRY2   7  1.000000  0.000000  0.000000        0.00000
REMARK 290   SMTRY3   7  0.000000  0.000000 -1.000000       54.08575
REMARK 290   SMTRY1   8  0.000000 -1.000000  0.000000        0.00000
REMARK 290   SMTRY2   8 -1.000000  0.000000  0.000000        0.00000
REMARK 290   SMTRY3   8  0.000000  0.000000 -1.000000      162.25725
REMARK 290                                                            
REMARK 290 REMARK: NULL                                               
CRYST1   42.641   42.641  216.343  90.00  90.00  90.00 P 43 2 2       


$$$$
XX01ZVNS2B-x3400-ASAP-0029002
  PyMOL3.0          3D                             0

 22 25  0  0  0  0  0  0  0  0999 V2000
   -7.9500    5.0240  -13.8240 C   0  0  0  0  0  0  0  0  0  0  0  0
   -8.8430    4.2990  -13.1090 N   0  0  0  0  0  0  0  0  0  0  0  0
   -7.0750    5.6940  -13.2820 O   0  0  0  0  0  0  0  0  0  0  0  0
   -8.9490    4.2840  -11.6870 C   0  0  0  0  0  0  0  0  0  0  0  0
   -9.0840    2.5090   -7.3950 N   0  0  0  0  0  0  0  0  0  0  0  0
   -8.8090    5.4670  -10.9600 C   0  0  0  0  0  0  0  0  0  0  0  0
   -5.5770    5.4460  -17.9450 N   0  0  0  0  0  0  0  0  0  0  0  0
   -8.8820    5.4600   -9.5740 C   0  0  0  0  0  0  0  0  0  0  0  0
   -9.0710    4.2480   -8.9150 C   0  0  0  0  0  0  0  0  0  0  0  0
   -9.2460    3.0730   -9.6340 C   0  0  0  0  0  0  0  0  0  0  0  0
   -9.1420    3.0660  -11.0210 C   0  0  0  0  0  0  0  0  0  0  0  0
   -9.5190    1.9410   -8.6840 C   0  0  0  0  0  0  0  0  0  0  0  0
   -9.2540    3.9740   -7.4500 C   0  0  0  0  0  0  0  0  0  0  0  0
   -7.9920    4.9460  -15.3240 C   0  0  0  0  0  0  0  0  0  0  0  0
   -9.1390    4.6170  -16.0380 C   0  0  0  0  0  0  0  0  0  0  0  0
   -9.1340    4.6050  -17.4230 C   0  0  0  0  0  0  0  0  0  0  0  0
   -8.0160    4.8900  -18.1700 C   0  0  0  0  0  0  0  0  0  0  0  0
   -6.8450    5.1930  -17.4830 C   0  0  0  0  0  0  0  0  0  0  0  0
   -4.7380    5.5980  -16.8710 C   0  0  0  0  0  0  0  0  0  0  0  0
   -5.4450    5.4840  -15.7100 C   0  0  0  0  0  0  0  0  0  0  0  0
   -6.8030    5.2050  -16.0730 C   0  0  0  0  0  0  0  0  0  0  0  0
  -10.7600    4.2750  -18.3550 Br  0  0  0  0  0  0  0  0  0  0  0  0
  1  2  1  0  0  0  0
  1 14  1  0  0  0  0
  2  4  1  0  0  0  0
  1  3  2  0  0  0  0
  4  6  4  0  0  0  0
  4 11  4  0  0  0  0
  5 13  1  0  0  0  0
  6  8  4  0  0  0  0
  7 19  4  0  0  0  0
  8  9  4  0  0  0  0
  9 10  4  0  0  0  0
  9 13  1  0  0  0  0
 10 11  4  0  0  0  0
 10 12  1  0  0  0  0
  5 12  1  0  0  0  0
 14 15  4  0  0  0  0
 14 21  4  0  0  0  0
 15 16  4  0  0  0  0
 16 17  4  0  0  0  0
 16 22  1  0  0  0  0
 17 18  4  0  0  0  0
  7 18  4  0  0  0  0
 18 21  4  0  0  0  0
 19 20  4  0  0  0  0
 20 21  4  0  0  0  0
M  END
>  <pdb_header>
REMARK --------------------- added by autoBUSTER ---------------------------------START
REMARK run at   = Mon Jul 22 14:29:36 BST 2024
REMARK     in   = /dls/labxchem/data/lb32627/lb32627-65/processing/analysis/model_building/XX01ZVNS2B-x3400
REMARK     user = kyf22269
REMARK     cmd  = \
REMARK            /dls_sw/apps/GPhL/BUSTER/20240123/autoBUSTER/bin/linux64/refine \
REMARK            -p \
REMARK            /dls/labxchem/data/lb32627/lb32627-65/processing/analysis/model_building/XX01ZVNS2B-x3400/cootOut/Refine_4/in.pdb \
REMARK            -m \
REMARK            /dls/labxchem/data/lb32627/lb32627-65/processing/analysis/model_building/XX01ZVNS2B-x3400/XX01ZVNS2B-x3400.free.mtz \
REMARK            -l \
REMARK            /dls/labxchem/data/lb32627/lb32627-65/processing/analysis/model_building/XX01ZVNS2B-x3400/ASAP-0029002-001.cif \
REMARK            -autoncs -M TLSbasic -d Refine_4
REMARK Files used:
REMARK   PDB              = Refine_4/pdbchk.pdb
REMARK   MTZ              = /dls/labxchem/data/lb32627/lb32627-65/processing/analysis/model_building/XX01ZVNS2B-x3400/XX01ZVNS2B-x3400.free.mtz
REMARK output written to subdirectory = Refine_4
REMARK best refinement for F,SIGF with R/Rfree 0.2261/0.2659
REMARK header records are copied from input PDB file (apart from REMARK 3!)
REMARK --------------------- added by autoBUSTER -----------------------------------END
REMARK --------------------- added by autoBUSTER -------------------------------
REMARK run at   = Mon Jul 22 13:59:56 BST 2024                                  
REMARK     in   = /dls/labxchem/data/lb32627/lb32627-65/processing/analysis/mode
REMARK     user = kyf22269                                                      
REMARK     cmd  = \                                                             
REMARK            /dls_sw/apps/GPhL/BUSTER/20240123/autoBUSTER/bin/linux64/refin
REMARK            -p \                                                          
REMARK            /dls/labxchem/data/lb32627/lb32627-65/processing/analysis/mode
REMARK            -m \                                                          
REMARK            /dls/labxchem/data/lb32627/lb32627-65/processing/analysis/mode
REMARK            -l \                                                          
REMARK            /dls/labxchem/data/lb32627/lb32627-65/processing/analysis/mode
REMARK            -autoncs -M TLSbasic -d Refine_3                              
REMARK Files used:                                                              
REMARK   PDB              = Refine_3/pdbchk.pdb                                 
REMARK   MTZ              = /dls/labxchem/data/lb32627/lb32627-65/processing/ana
REMARK output written to subdirectory = Refine_3                                
REMARK best refinement for F,SIGF with R/Rfree 0.2308/0.2669                    
REMARK header records are copied from input PDB file (apart from REMARK 3!)     
REMARK --------------------- added by autoBUSTER -------------------------------
REMARK --------------------- added by autoBUSTER -------------------------------
REMARK run at   = Thu Jul 18 18:22:43 BST 2024                                  
REMARK     in   = /dls/labxchem/data/lb32627/lb32627-65/processing/analysis/mode
REMARK     user = kyf22269                                                      
REMARK     cmd  = \                                                             
REMARK            /dls_sw/apps/GPhL/BUSTER/20240123/autoBUSTER/bin/linux64/refin
REMARK            -p \                                                          
REMARK            /dls/labxchem/data/lb32627/lb32627-65/processing/analysis/mode
REMARK            -m \                                                          
REMARK            /dls/labxchem/data/lb32627/lb32627-65/processing/analysis/mode
REMARK            -l \                                                          
REMARK            /dls/labxchem/data/lb32627/lb32627-65/processing/analysis/mode
REMARK            -autoncs -M TLSbasic -d Refine_2                              
REMARK Files used:                                                              
REMARK   PDB              = Refine_2/pdbchk.pdb                                 
REMARK   MTZ              = /dls/labxchem/data/lb32627/lb32627-65/processing/ana
REMARK output written to subdirectory = Refine_2                                
REMARK best refinement for F,SIGF with R/Rfree 0.2359/0.2744                    
REMARK header records are copied from input PDB file (apart from REMARK 3!)     
REMARK --------------------- added by autoBUSTER -------------------------------
REMARK --------------------- added by autoBUSTER -------------------------------
REMARK run at   = Thu Jul 18 17:41:31 BST 2024                                  
REMARK     in   = /dls/labxchem/data/lb32627/lb32627-65/processing/analysis/mode
REMARK     user = kyf22269                                                      
REMARK     cmd  = \                                                             
REMARK            /dls_sw/apps/GPhL/BUSTER/20240123/autoBUSTER/bin/linux64/refin
REMARK            -p \                                                          
REMARK            /dls/labxchem/data/lb32627/lb32627-65/processing/analysis/mode
REMARK            -m \                                                          
REMARK            /dls/labxchem/data/lb32627/lb32627-65/processing/analysis/mode
REMARK            -l \                                                          
REMARK            /dls/labxchem/data/lb32627/lb32627-65/processing/analysis/mode
REMARK            -autoncs -M TLSbasic -d Refine_1                              
REMARK Files used:                                                              
REMARK   PDB              = Refine_1/pdbchk.pdb                                 
REMARK   MTZ              = /dls/labxchem/data/lb32627/lb32627-65/processing/ana
REMARK output written to subdirectory = Refine_1                                
REMARK best refinement for F,SIGF with R/Rfree 0.2482/0.2750                    
REMARK header records are copied from input PDB file (apart from REMARK 3!)     
REMARK --------------------- added by autoBUSTER -------------------------------
HEADER    ----                                    23-FEB-23                     
TITLE     ---                                                                   
COMPND    ---                                                                   
EXPDTA    X-RAY DIFFRACTION
REMARK   2                                                            
REMARK   2 RESOLUTION.    1.72 ANGSTROMS.
REMARK   3
REMARK   3 REFINEMENT.
REMARK   3   PROGRAM     : BUSTER 2.10.4 (23-JAN-2024)
REMARK   3   AUTHORS     : BRICOGNE,BLANC,BRANDL,FLENSBURG,KELLER,
REMARK   3               : PACIOREK,ROVERSI,SHARFF,SMART,VONRHEIN,WOMACK;
REMARK   3               : MATTHEWS,TEN EYCK,TRONRUD
REMARK   3
REMARK   3  DATA USED IN REFINEMENT.
REMARK   3   RESOLUTION RANGE HIGH (ANGSTROMS) : 1.718
REMARK   3   RESOLUTION RANGE LOW  (ANGSTROMS) : 54.40
REMARK   3   DATA CUTOFF            (SIGMA(F)) : 0.000
REMARK   3   COMPLETENESS FOR RANGE        (%) : 96.7
REMARK   3   NUMBER OF REFLECTIONS             : 21625
REMARK   3
REMARK   3  FIT TO DATA USED IN REFINEMENT.
REMARK   3   CROSS-VALIDATION METHOD          : THROUGHOUT
REMARK   3   FREE R VALUE TEST SET SELECTION  : RANDOM
REMARK   3   R VALUE     (WORKING + TEST SET) : 0.2281
REMARK   3   R VALUE            (WORKING SET) : 0.2261
REMARK   3   FREE R VALUE                     : 0.2659
REMARK   3   FREE R VALUE TEST SET SIZE   (%) : 5.090
REMARK   3   FREE R VALUE TEST SET COUNT      : 1100
REMARK   3   ESTIMATED ERROR OF FREE R VALUE  : NULL
REMARK   3
REMARK   3  FIT IN THE HIGHEST RESOLUTION BIN.
REMARK   3   TOTAL NUMBER OF BINS USED           : 51
REMARK   3   BIN RESOLUTION RANGE HIGH       (A) : 1.72
REMARK   3   BIN RESOLUTION RANGE LOW        (A) : 1.74
REMARK   3   BIN COMPLETENESS (WORKING+TEST) (%) : 47.31
REMARK   3   REFLECTIONS IN BIN   (WORKING+TEST) : 433
REMARK   3   BIN R VALUE          (WORKING+TEST) : 0.5115
REMARK   3   REFLECTIONS IN BIN    (WORKING SET) : 403
REMARK   3   BIN R VALUE           (WORKING SET) : 0.5142
REMARK   3   BIN FREE R VALUE                    : 0.4766
REMARK   3   BIN FREE R VALUE TEST SET SIZE  (%) : 6.93
REMARK   3   BIN FREE R VALUE TEST SET COUNT     : 30
REMARK   3   ESTIMATED ERROR OF BIN FREE R VALUE : NULL
REMARK   3
REMARK   3  NUMBER OF NON-HYDROGEN ATOMS USED IN REFINEMENT.
REMARK   3   PROTEIN ATOMS            : 1476
REMARK   3   NUCLEIC ACID ATOMS       : 0
REMARK   3   HETEROGEN ATOMS          : 30
REMARK   3   SOLVENT ATOMS            : 128
REMARK   3
REMARK   3  B VALUES.
REMARK   3   FROM WILSON PLOT           (A**2) : 35.80
REMARK   3   MEAN B VALUE      (OVERALL, A**2) : 46.78
REMARK   3   OVERALL ANISOTROPIC B VALUE.
REMARK   3    B11 (A**2) : -5.13380
REMARK   3    B22 (A**2) : -5.13380
REMARK   3    B33 (A**2) : 10.26760
REMARK   3    B12 (A**2) : 0.00000
REMARK   3    B13 (A**2) : 0.00000
REMARK   3    B23 (A**2) : 0.00000
REMARK   3
REMARK   3  ESTIMATED COORDINATE ERROR.
REMARK   3   ESD FROM LUZZATI PLOT                    (A) : 0.30
REMARK   3   DPI (BLOW EQ-10) BASED ON R VALUE        (A) : 0.141
REMARK   3   DPI (BLOW EQ-9) BASED ON FREE R VALUE    (A) : 0.134
REMARK   3   DPI (CRUICKSHANK) BASED ON R VALUE       (A) : 0.130
REMARK   3   DPI (CRUICKSHANK) BASED ON FREE R VALUE  (A) : 0.127
REMARK   3
REMARK   3   REFERENCES: BLOW, D. (2002) ACTA CRYST D58, 792-797
REMARK   3               CRUICKSHANK, D.W.J. (1999) ACTA CRYST D55, 583-601
REMARK   3
REMARK   3  CORRELATION COEFFICIENTS.
REMARK   3   CORRELATION COEFFICIENT FO-FC      : 0.944
REMARK   3   CORRELATION COEFFICIENT FO-FC FREE : 0.928
REMARK   3
REMARK   3  X-RAY WEIGHT : 5.84
REMARK   3
REMARK   3  GEOMETRY FUNCTION.                                                  
REMARK   3   RESTRAINT LIBRARIES.                                               
REMARK   3    NUMBER OF LIBRARIES USED :   9                                    
REMARK   3    LIBRARY  1 : protgeo_eh99.dat (V1.6.4.20) 20220523  STANDARD      
REMARK   3                 AMINO ACID DICTIONARY. BONDS AND ANGLES FROM         
REMARK   3                 ENGH AND HUBER EH99. OTHER VALUES BASED ON           
REMARK   3                 PREVIOUS TNT OR TAKEN FROM CCP4. INCLUDES            
REMARK   3                 HYDROGEN ATOMS.                                      
REMARK   3    LIBRARY  2 : exoticaa.dat (V1.3.4.17) 20231017  COLLECTION        
REMARK   3                 OF NON-STANDARD AMINO ACIDS, MAINLY EH91             
REMARK   3                 WITHOUT IDEAL DISTANCE INFO                          
REMARK   3    LIBRARY  3 : nuclgeo.dat (V1.13.4.9) 20221011                     
REMARK   3    LIBRARY  4 : bcorrel.dat (V1.15.10.2) 20190616                    
REMARK   3    LIBRARY  5 : contact.dat (V1.15.12.10) 20191121                   
REMARK   3    LIBRARY  6 : idealdist_contact.dat (V1.3.4.15) 20231124           
REMARK   3                 IDEAL-DISTANCE CONTACT TERM DATA AS USED IN          
REMARK   3                 PROLSQ. VALUES USED HERE ARE BASEd ON DATA           
REMARK   3                 HARVESTING OF PDB AS OF 20190109                     
REMARK   3    LIBRARY  7 : restraints for LIG from cif dictionary               
REMARK   3                 ASAP-0029002-001.cif                                 
REMARK   3    LIBRARY  8 : restraints for DMS (DIMETHYL SULFOXIDE) from         
REMARK   3                 cif dictionary DMS.cif; generated by grade2          
REMARK   3                 version 1.1.0a7 from                                 
REMARK   3                 PDB_chemical_components_definition_file              
REMARK   3                 ftp://ftp.ebi.ac.uk/pub/databases/msd/pdbechem_v     
REMARK   3                 2/D/DMS/DMS.cif using RDKit 2021.03.4                
REMARK   3                 ((DatabaseID PDB-DMS))                               
REMARK   3    LIBRARY  9 : assume.dat (V1.9.4.3) 20221011                       
REMARK   3                                                                      
REMARK   3   NUMBER OF GEOMETRIC FUNCTION TERMS DEFINED : 15                    
REMARK   3   TERM                          COUNT    WEIGHT   FUNCTION.          
REMARK   3    BOND LENGTHS              :   1562 ;   2.00 ;  HARMONIC           
REMARK   3    BOND ANGLES               :   2124 ;   2.00 ;  HARMONIC           
REMARK   3    TORSION ANGLES            :    531 ;   2.00 ;  SINUSOIDAL         
REMARK   3    TRIGONAL CARBON PLANES    :   NULL ;   NULL ;  NULL               
REMARK   3    GENERAL PLANES            :    267 ;   5.00 ;  HARMONIC           
REMARK   3    ISOTROPIC THERMAL FACTORS :   1562 ;  10.00 ;  HARMONIC           
REMARK   3    BAD NON-BONDED CONTACTS   :      0 ;   5.00 ;  SEMIHARMONIC       
REMARK   3    IMPROPER TORSIONS         :   NULL ;   NULL ;  NULL               
REMARK   3    PSEUDOROTATION ANGLES     :   NULL ;   NULL ;  NULL               
REMARK   3    CHIRAL IMPROPER TORSION   :    193 ;   5.00 ;  SEMIHARMONIC       
REMARK   3    SUM OF OCCUPANCIES        :   NULL ;   NULL ;  NULL               
REMARK   3    UTILITY DISTANCES         :   NULL ;   NULL ;  NULL               
REMARK   3    UTILITY ANGLES            :   NULL ;   NULL ;  NULL               
REMARK   3    UTILITY TORSION           :   NULL ;   NULL ;  NULL               
REMARK   3    IDEAL-DIST CONTACT TERM   :   1249 ;   4.00 ;  SEMIHARMONIC       
REMARK   3                                                                      
REMARK   3   RMS DEVIATIONS FROM IDEAL VALUES.                                  
REMARK   3   BOND LENGTHS                       (A) : 0.009                     
REMARK   3   BOND ANGLES                  (DEGREES) : 1.01                      
REMARK   3   PEPTIDE OMEGA TORSION ANGLES (DEGREES) : 3.61                      
REMARK   3   OTHER TORSION ANGLES         (DEGREES) : 17.05                     
REMARK   3                                                                      
REMARK   3   SIMILARITY.                                                        
REMARK   3    NCS.                                                              
REMARK   3     NCS METHOD: NONE                                                 
REMARK   3    TARGET RESTRAINTS.                                                
REMARK   3     TARGET REPRESENTATION : NONE                                     
REMARK   3     TARGET STRUCTURE : NULL                                          
REMARK   3                                                                      
REMARK   3  TLS DETAILS.                                                        
REMARK   3   NUMBER OF TLS GROUPS  :            2                               
REMARK   3                                                                      
REMARK   3   TLS GROUP :            1                                           
REMARK   3    SET : { A|* }                                                     
REMARK   3    ORIGIN FOR THE GROUP (A):  -13.3987   -1.5346  -19.3536           
REMARK   3    T TENSOR                                                          
REMARK   3     T11:    0.0282 T22:   -0.0345                                    
REMARK   3     T33:   -0.1689 T12:    0.1802                                    
REMARK   3     T13:    0.0892 T23:    0.0984                                    
REMARK   3    L TENSOR                                                          
REMARK   3     L11:    3.1818 L22:    3.0363                                    
REMARK   3     L33:    3.0465 L12:   -1.8283                                    
REMARK   3     L13:    0.3678 L23:    1.1612                                    
REMARK   3    S TENSOR                                                          
REMARK   3     S11:    0.4879 S12:    0.4303 S13:    0.2776                     
REMARK   3     S21:   -0.4517 S22:   -0.3915 S23:   -0.3369                     
REMARK   3     S31:   -0.0317 S32:    0.3461 S33:   -0.0963                     
REMARK   3                                                                      
REMARK   3   TLS GROUP :            2                                           
REMARK   3    SET : { B|* }                                                     
REMARK   3    ORIGIN FOR THE GROUP (A):  -18.4456    0.9113  -15.6976           
REMARK   3    T TENSOR                                                          
REMARK   3     T11:    0.0888 T22:    0.0044                                    
REMARK   3     T33:   -0.0529 T12:    0.1557                                    
REMARK   3     T13:    0.0247 T23:    0.0235                                    
REMARK   3    L TENSOR                                                          
REMARK   3     L11:    1.2251 L22:    0.8652                                    
REMARK   3     L33:    1.6133 L12:   -0.9284                                    
REMARK   3     L13:    0.5125 L23:   -0.2214                                    
REMARK   3    S TENSOR                                                          
REMARK   3     S11:    0.3143 S12:    0.1483 S13:    0.0863                     
REMARK   3     S21:   -0.1367 S22:   -0.2991 S23:    0.0656                     
REMARK   3     S31:    0.1488 S32:    0.1427 S33:   -0.0153                     
REMARK   3                                                                      
REMARK   3  REFINEMENT NOTES.                                                   
REMARK   3   NUMBER OF REFINEMENT NOTES :   1                                   
REMARK   3   NOTE   1 :  IDEAL-DIST CONTACT TERM CONTACT SETUP. RESIDUE         
REMARK   3               TYPES WITHOUT CCP4 ATOM TYPE IN LIBRARY=. NUMBER       
REMARK   3               OF ATOMS WITH PROPER CCP4 ATOM TYPE=1655. NUMBER       
REMARK   3               WITH APPROX DEFAULT CCP4 ATOM TYPE=0. NUMBER           
REMARK   3               TREATED BY BAD NON-BONDED CONTACTS=1.                  
REMARK   3
REMARK   3  OTHER REFINEMENT REMARKS: NULL
REMARK   3
REMARK 290                                                            
REMARK 290 CRYSTALLOGRAPHIC SYMMETRY                                  
REMARK 290 SYMMETRY OPERATORS FOR SPACE GROUP: P 43 2 2               
REMARK 290                                                            
REMARK 290      SYMOP   SYMMETRY                                      
REMARK 290     NNNMMM   OPERATOR                                      
REMARK 290       1555   X,Y,Z                                         
REMARK 290       2555   -X,-Y,1/2+Z                                   
REMARK 290       3555   -Y,X,3/4+Z                                    
REMARK 290       4555   Y,-X,1/4+Z                                    
REMARK 290       5555   -X,Y,-Z                                       
REMARK 290       6555   X,-Y,1/2-Z                                    
REMARK 290       7555   Y,X,1/4-Z                                     
REMARK 290       8555   -Y,-X,3/4-Z                                   
REMARK 290                                                            
REMARK 290     WHERE NNN -> OPERATOR NUMBER                           
REMARK 290           MMM -> TRANSLATION VECTOR                        
REMARK 290                                                            
REMARK 290 CRYSTALLOGRAPHIC SYMMETRY TRANSFORMATIONS                  
REMARK 290 THE FOLLOWING TRANSFORMATIONS OPERATE ON THE ATOM/HETATM   
REMARK 290 RECORDS IN THIS ENTRY TO PRODUCE CRYSTALLOGRAPHICALLY      
REMARK 290 RELATED MOLECULES.                                         
REMARK 290   SMTRY1   1  1.000000  0.000000  0.000000        0.00000
REMARK 290   SMTRY2   1  0.000000  1.000000  0.000000        0.00000
REMARK 290   SMTRY3   1  0.000000  0.000000  1.000000        0.00000
REMARK 290   SMTRY1   2 -1.000000  0.000000  0.000000        0.00000
REMARK 290   SMTRY2   2  0.000000 -1.000000  0.000000        0.00000
REMARK 290   SMTRY3   2  0.000000  0.000000  1.000000      108.79750
REMARK 290   SMTRY1   3  0.000000 -1.000000  0.000000        0.00000
REMARK 290   SMTRY2   3  1.000000  0.000000  0.000000        0.00000
REMARK 290   SMTRY3   3  0.000000  0.000000  1.000000      163.19625
REMARK 290   SMTRY1   4  0.000000  1.000000  0.000000        0.00000
REMARK 290   SMTRY2   4 -1.000000  0.000000  0.000000        0.00000
REMARK 290   SMTRY3   4  0.000000  0.000000  1.000000       54.39875
REMARK 290   SMTRY1   5 -1.000000  0.000000  0.000000        0.00000
REMARK 290   SMTRY2   5  0.000000  1.000000  0.000000        0.00000
REMARK 290   SMTRY3   5  0.000000  0.000000 -1.000000        0.00000
REMARK 290   SMTRY1   6  1.000000  0.000000  0.000000        0.00000
REMARK 290   SMTRY2   6  0.000000 -1.000000  0.000000        0.00000
REMARK 290   SMTRY3   6  0.000000  0.000000 -1.000000      108.79750
REMARK 290   SMTRY1   7  0.000000  1.000000  0.000000        0.00000
REMARK 290   SMTRY2   7  1.000000  0.000000  0.000000        0.00000
REMARK 290   SMTRY3   7  0.000000  0.000000 -1.000000       54.39875
REMARK 290   SMTRY1   8  0.000000 -1.000000  0.000000        0.00000
REMARK 290   SMTRY2   8 -1.000000  0.000000  0.000000        0.00000
REMARK 290   SMTRY3   8  0.000000  0.000000 -1.000000      163.19625
REMARK 290                                                            
REMARK 290 REMARK: NULL                                               
CRYST1   42.379   42.379  217.595  90.00  90.00  90.00 P 43 2 2       


$$$$
XX01ZVNS2B-x3432-ASAP-0029045
  PyMOL3.0          3D                             0

 23 26  0  0  0  0  0  0  0  0999 V2000
   -8.2180    5.2730  -14.0890 C   0  0  0  0  0  0  0  0  0  0  0  0
   -8.7110    4.2400  -13.3530 N   0  0  0  0  0  0  0  0  0  0  0  0
   -7.8600    6.3380  -13.6020 O   0  0  0  0  0  0  0  0  0  0  0  0
   -8.8510    4.1910  -11.9360 C   0  0  0  0  0  0  0  0  0  0  0  0
   -9.3140    2.3890   -7.7010 N   0  0  0  0  0  0  0  0  0  0  0  0
   -8.5100    5.3110  -11.1810 C   0  0  0  0  0  0  0  0  0  0  0  0
   -8.6280    5.2960   -9.8030 C   0  0  0  0  0  0  0  0  0  0  0  0
   -9.0460    4.1300   -9.1760 C   0  0  0  0  0  0  0  0  0  0  0  0
   -9.4010    3.0130   -9.9200 C   0  0  0  0  0  0  0  0  0  0  0  0
   -9.2990    3.0220  -11.3050 C   0  0  0  0  0  0  0  0  0  0  0  0
   -9.8520    1.9240   -8.9890 C   0  0  0  0  0  0  0  0  0  0  0  0
   -9.2930    3.8590   -7.7190 C   0  0  0  0  0  0  0  0  0  0  0  0
   -8.0910    5.0270  -15.5690 C   0  0  0  0  0  0  0  0  0  0  0  0
   -9.2000    4.6190  -16.2770 C   0  0  0  0  0  0  0  0  0  0  0  0
   -9.1490    4.4780  -17.6490 C   0  0  0  0  0  0  0  0  0  0  0  0
   -8.0070    4.7250  -18.3490 C   0  0  0  0  0  0  0  0  0  0  0  0
   -6.8480    5.1560  -17.6690 C   0  0  0  0  0  0  0  0  0  0  0  0
   -5.6460    5.4020  -18.3780 C   0  0  0  0  0  0  0  0  0  0  0  0
   -4.5230    5.8100  -17.7320 C   0  0  0  0  0  0  0  0  0  0  0  0
   -4.5320    5.9720  -16.3400 C   0  0  0  0  0  0  0  0  0  0  0  0
   -5.6690    5.7220  -15.6250 C   0  0  0  0  0  0  0  0  0  0  0  0
   -6.8730    5.3180  -16.2580 C   0  0  0  0  0  0  0  0  0  0  0  0
  -10.7020    3.9130  -18.5940 Br  0  0  0  0  0  0  0  0  0  0  0  0
  1  2  1  0  0  0  0
  1 13  1  0  0  0  0
  2  4  1  0  0  0  0
  1  3  2  0  0  0  0
  4  6  4  0  0  0  0
  4 10  4  0  0  0  0
  5 12  1  0  0  0  0
  6  7  4  0  0  0  0
  7  8  4  0  0  0  0
  8  9  4  0  0  0  0
  8 12  1  0  0  0  0
  9 10  4  0  0  0  0
  9 11  1  0  0  0  0
  5 11  1  0  0  0  0
 13 14  4  0  0  0  0
 13 22  4  0  0  0  0
 14 15  4  0  0  0  0
 15 16  4  0  0  0  0
 15 23  1  0  0  0  0
 16 17  4  0  0  0  0
 17 18  4  0  0  0  0
 17 22  4  0  0  0  0
 18 19  4  0  0  0  0
 19 20  4  0  0  0  0
 20 21  4  0  0  0  0
 21 22  4  0  0  0  0
M  END
>  <pdb_header>
REMARK --------------------- added by autoBUSTER ---------------------------------START
REMARK run at   = Tue Jul 23 14:12:08 BST 2024
REMARK     in   = /dls/labxchem/data/lb32627/lb32627-65/processing/analysis/model_building/XX01ZVNS2B-x3432
REMARK     user = kyf22269
REMARK     cmd  = \
REMARK            /dls_sw/apps/GPhL/BUSTER/20240123/autoBUSTER/bin/linux64/refine \
REMARK            -p \
REMARK            /dls/labxchem/data/lb32627/lb32627-65/processing/analysis/model_building/XX01ZVNS2B-x3432/cootOut/Refine_4/in.pdb \
REMARK            -m \
REMARK            /dls/labxchem/data/lb32627/lb32627-65/processing/analysis/model_building/XX01ZVNS2B-x3432/XX01ZVNS2B-x3432.free.mtz \
REMARK            -l \
REMARK            /dls/labxchem/data/lb32627/lb32627-65/processing/analysis/model_building/XX01ZVNS2B-x3432/ASAP-0029045-001.cif \
REMARK            -autoncs -M TLSbasic -d Refine_4
REMARK Files used:
REMARK   PDB              = Refine_4/pdbchk.pdb
REMARK   MTZ              = /dls/labxchem/data/lb32627/lb32627-65/processing/analysis/model_building/XX01ZVNS2B-x3432/XX01ZVNS2B-x3432.free.mtz
REMARK output written to subdirectory = Refine_4
REMARK best refinement for F,SIGF with R/Rfree 0.2337/0.3024
REMARK header records are copied from input PDB file (apart from REMARK 3!)
REMARK --------------------- added by autoBUSTER -----------------------------------END
REMARK --------------------- added by autoBUSTER -------------------------------
REMARK run at   = Tue Jul 23 13:29:38 BST 2024                                  
REMARK     in   = /dls/labxchem/data/lb32627/lb32627-65/processing/analysis/mode
REMARK     user = kyf22269                                                      
REMARK     cmd  = \                                                             
REMARK            /dls_sw/apps/GPhL/BUSTER/20240123/autoBUSTER/bin/linux64/refin
REMARK            -p \                                                          
REMARK            /dls/labxchem/data/lb32627/lb32627-65/processing/analysis/mode
REMARK            -m \                                                          
REMARK            /dls/labxchem/data/lb32627/lb32627-65/processing/analysis/mode
REMARK            -l \                                                          
REMARK            /dls/labxchem/data/lb32627/lb32627-65/processing/analysis/mode
REMARK            -autoncs -M TLSbasic -d Refine_3                              
REMARK Files used:                                                              
REMARK   PDB              = Refine_3/pdbchk.pdb                                 
REMARK   MTZ              = /dls/labxchem/data/lb32627/lb32627-65/processing/ana
REMARK output written to subdirectory = Refine_3                                
REMARK best refinement for F,SIGF with R/Rfree 0.2310/0.3081                    
REMARK header records are copied from input PDB file (apart from REMARK 3!)     
REMARK --------------------- added by autoBUSTER -------------------------------
REMARK --------------------- added by autoBUSTER -------------------------------
REMARK run at   = Tue Jul 23 11:45:53 BST 2024                                  
REMARK     in   = /dls/labxchem/data/lb32627/lb32627-65/processing/analysis/mode
REMARK     user = kyf22269                                                      
REMARK     cmd  = \                                                             
REMARK            /dls_sw/apps/GPhL/BUSTER/20240123/autoBUSTER/bin/linux64/refin
REMARK            -p \                                                          
REMARK            /dls/labxchem/data/lb32627/lb32627-65/processing/analysis/mode
REMARK            -m \                                                          
REMARK            /dls/labxchem/data/lb32627/lb32627-65/processing/analysis/mode
REMARK            -l \                                                          
REMARK            /dls/labxchem/data/lb32627/lb32627-65/processing/analysis/mode
REMARK            -autoncs -M TLSbasic -d Refine_2                              
REMARK Files used:                                                              
REMARK   PDB              = Refine_2/pdbchk.pdb                                 
REMARK   MTZ              = /dls/labxchem/data/lb32627/lb32627-65/processing/ana
REMARK output written to subdirectory = Refine_2                                
REMARK best refinement for F,SIGF with R/Rfree 0.2477/0.3123                    
REMARK header records are copied from input PDB file (apart from REMARK 3!)     
REMARK --------------------- added by autoBUSTER -------------------------------
HEADER    ----                                    23-FEB-23                     
TITLE     ---                                                                   
COMPND    ---                                                                   
EXPDTA    X-RAY DIFFRACTION
REMARK   2                                                            
REMARK   2 RESOLUTION.    2.67 ANGSTROMS.
REMARK   3
REMARK   3 REFINEMENT.
REMARK   3   PROGRAM     : BUSTER 2.10.4 (23-JAN-2024)
REMARK   3   AUTHORS     : BRICOGNE,BLANC,BRANDL,FLENSBURG,KELLER,
REMARK   3               : PACIOREK,ROVERSI,SHARFF,SMART,VONRHEIN,WOMACK;
REMARK   3               : MATTHEWS,TEN EYCK,TRONRUD
REMARK   3
REMARK   3  DATA USED IN REFINEMENT.
REMARK   3   RESOLUTION RANGE HIGH (ANGSTROMS) : 2.666
REMARK   3   RESOLUTION RANGE LOW  (ANGSTROMS) : 41.91
REMARK   3   DATA CUTOFF            (SIGMA(F)) : 0.000
REMARK   3   COMPLETENESS FOR RANGE        (%) : 73.9
REMARK   3   NUMBER OF REFLECTIONS             : 4703
REMARK   3
REMARK   3  FIT TO DATA USED IN REFINEMENT.
REMARK   3   CROSS-VALIDATION METHOD          : THROUGHOUT
REMARK   3   FREE R VALUE TEST SET SELECTION  : RANDOM
REMARK   3   R VALUE     (WORKING + TEST SET) : 0.2371
REMARK   3   R VALUE            (WORKING SET) : 0.2337
REMARK   3   FREE R VALUE                     : 0.3024
REMARK   3   FREE R VALUE TEST SET SIZE   (%) : 4.830
REMARK   3   FREE R VALUE TEST SET COUNT      : 227
REMARK   3   ESTIMATED ERROR OF FREE R VALUE  : NULL
REMARK   3
REMARK   3  FIT IN THE HIGHEST RESOLUTION BIN.
REMARK   3   TOTAL NUMBER OF BINS USED           : 12
REMARK   3   BIN RESOLUTION RANGE HIGH       (A) : 2.67
REMARK   3   BIN RESOLUTION RANGE LOW        (A) : 3.03
REMARK   3   BIN COMPLETENESS (WORKING+TEST) (%) : 22.03
REMARK   3   REFLECTIONS IN BIN   (WORKING+TEST) : 428
REMARK   3   BIN R VALUE          (WORKING+TEST) : 0.2813
REMARK   3   REFLECTIONS IN BIN    (WORKING SET) : 408
REMARK   3   BIN R VALUE           (WORKING SET) : 0.2795
REMARK   3   BIN FREE R VALUE                    : 0.3144
REMARK   3   BIN FREE R VALUE TEST SET SIZE  (%) : 4.67
REMARK   3   BIN FREE R VALUE TEST SET COUNT     : 20
REMARK   3   ESTIMATED ERROR OF BIN FREE R VALUE : NULL
REMARK   3
REMARK   3  NUMBER OF NON-HYDROGEN ATOMS USED IN REFINEMENT.
REMARK   3   PROTEIN ATOMS            : 1476
REMARK   3   NUCLEIC ACID ATOMS       : 0
REMARK   3   HETEROGEN ATOMS          : 27
REMARK   3   SOLVENT ATOMS            : 55
REMARK   3
REMARK   3  B VALUES.
REMARK   3   FROM WILSON PLOT           (A**2) : 57.31
REMARK   3   MEAN B VALUE      (OVERALL, A**2) : 41.49
REMARK   3   OVERALL ANISOTROPIC B VALUE.
REMARK   3    B11 (A**2) : 5.04640
REMARK   3    B22 (A**2) : 5.04640
REMARK   3    B33 (A**2) : -10.09280
REMARK   3    B12 (A**2) : 0.00000
REMARK   3    B13 (A**2) : 0.00000
REMARK   3    B23 (A**2) : 0.00000
REMARK   3
REMARK   3  ESTIMATED COORDINATE ERROR.
REMARK   3   ESD FROM LUZZATI PLOT                    (A) : 0.46
REMARK   3   DPI (BLOW EQ-9) BASED ON FREE R VALUE    (A) : 0.541
REMARK   3
REMARK   3   REFERENCES: BLOW, D. (2002) ACTA CRYST D58, 792-797
REMARK   3
REMARK   3  CORRELATION COEFFICIENTS.
REMARK   3   CORRELATION COEFFICIENT FO-FC      : 0.881
REMARK   3   CORRELATION COEFFICIENT FO-FC FREE : 0.794
REMARK   3
REMARK   3  X-RAY WEIGHT : 8.84
REMARK   3
REMARK   3  GEOMETRY FUNCTION.                                                  
REMARK   3   RESTRAINT LIBRARIES.                                               
REMARK   3    NUMBER OF LIBRARIES USED :   9                                    
REMARK   3    LIBRARY  1 : protgeo_eh99.dat (V1.6.4.20) 20220523  STANDARD      
REMARK   3                 AMINO ACID DICTIONARY. BONDS AND ANGLES FROM         
REMARK   3                 ENGH AND HUBER EH99. OTHER VALUES BASED ON           
REMARK   3                 PREVIOUS TNT OR TAKEN FROM CCP4. INCLUDES            
REMARK   3                 HYDROGEN ATOMS.                                      
REMARK   3    LIBRARY  2 : exoticaa.dat (V1.3.4.17) 20231017  COLLECTION        
REMARK   3                 OF NON-STANDARD AMINO ACIDS, MAINLY EH91             
REMARK   3                 WITHOUT IDEAL DISTANCE INFO                          
REMARK   3    LIBRARY  3 : nuclgeo.dat (V1.13.4.9) 20221011                     
REMARK   3    LIBRARY  4 : bcorrel.dat (V1.15.10.2) 20190616                    
REMARK   3    LIBRARY  5 : contact.dat (V1.15.12.10) 20191121                   
REMARK   3    LIBRARY  6 : idealdist_contact.dat (V1.3.4.15) 20231124           
REMARK   3                 IDEAL-DISTANCE CONTACT TERM DATA AS USED IN          
REMARK   3                 PROLSQ. VALUES USED HERE ARE BASEd ON DATA           
REMARK   3                 HARVESTING OF PDB AS OF 20190109                     
REMARK   3    LIBRARY  7 : restraints for LIG from cif dictionary               
REMARK   3                 ASAP-0029045-001.cif                                 
REMARK   3    LIBRARY  8 : restraints for DMS (DIMETHYL SULFOXIDE) from         
REMARK   3                 cif dictionary DMS.cif; generated by grade2          
REMARK   3                 version 1.1.0a7 from                                 
REMARK   3                 PDB_chemical_components_definition_file              
REMARK   3                 ftp://ftp.ebi.ac.uk/pub/databases/msd/pdbechem_v     
REMARK   3                 2/D/DMS/DMS.cif using RDKit 2021.03.4                
REMARK   3                 ((DatabaseID PDB-DMS))                               
REMARK   3    LIBRARY  9 : assume.dat (V1.9.4.3) 20221011                       
REMARK   3                                                                      
REMARK   3   NUMBER OF GEOMETRIC FUNCTION TERMS DEFINED : 15                    
REMARK   3   TERM                          COUNT    WEIGHT   FUNCTION.          
REMARK   3    BOND LENGTHS              :   1572 ;   2.00 ;  HARMONIC           
REMARK   3    BOND ANGLES               :   2142 ;   2.00 ;  HARMONIC           
REMARK   3    TORSION ANGLES            :    537 ;   2.00 ;  SINUSOIDAL         
REMARK   3    TRIGONAL CARBON PLANES    :   NULL ;   NULL ;  NULL               
REMARK   3    GENERAL PLANES            :    271 ;   5.00 ;  HARMONIC           
REMARK   3    ISOTROPIC THERMAL FACTORS :   1572 ;  10.00 ;  HARMONIC           
REMARK   3    BAD NON-BONDED CONTACTS   :      0 ;   5.00 ;  SEMIHARMONIC       
REMARK   3    IMPROPER TORSIONS         :   NULL ;   NULL ;  NULL               
REMARK   3    PSEUDOROTATION ANGLES     :   NULL ;   NULL ;  NULL               
REMARK   3    CHIRAL IMPROPER TORSION   :    196 ;   5.00 ;  SEMIHARMONIC       
REMARK   3    SUM OF OCCUPANCIES        :   NULL ;   NULL ;  NULL               
REMARK   3    UTILITY DISTANCES         :   NULL ;   NULL ;  NULL               
REMARK   3    UTILITY ANGLES            :   NULL ;   NULL ;  NULL               
REMARK   3    UTILITY TORSION           :   NULL ;   NULL ;  NULL               
REMARK   3    IDEAL-DIST CONTACT TERM   :   1114 ;   4.00 ;  SEMIHARMONIC       
REMARK   3                                                                      
REMARK   3   RMS DEVIATIONS FROM IDEAL VALUES.                                  
REMARK   3   BOND LENGTHS                       (A) : 0.007                     
REMARK   3   BOND ANGLES                  (DEGREES) : 0.86                      
REMARK   3   PEPTIDE OMEGA TORSION ANGLES (DEGREES) : 2.39                      
REMARK   3   OTHER TORSION ANGLES         (DEGREES) : 19.27                     
REMARK   3                                                                      
REMARK   3   SIMILARITY.                                                        
REMARK   3    NCS.                                                              
REMARK   3     NCS METHOD: NONE                                                 
REMARK   3    TARGET RESTRAINTS.                                                
REMARK   3     TARGET REPRESENTATION : NONE                                     
REMARK   3     TARGET STRUCTURE : NULL                                          
REMARK   3                                                                      
REMARK   3  TLS DETAILS.                                                        
REMARK   3   NUMBER OF TLS GROUPS  :            2                               
REMARK   3                                                                      
REMARK   3   TLS GROUP :            1                                           
REMARK   3    SET : { A|* }                                                     
REMARK   3    ORIGIN FOR THE GROUP (A):  -14.0011   -1.7104  -19.5580           
REMARK   3    T TENSOR                                                          
REMARK   3     T11:   -0.1869 T22:   -0.2811                                    
REMARK   3     T33:   -0.4653 T12:    0.1997                                    
REMARK   3     T13:    0.1251 T23:    0.0348                                    
REMARK   3    L TENSOR                                                          
REMARK   3     L11:    6.7800 L22:    4.9626                                    
REMARK   3     L33:    5.3527 L12:   -1.7181                                    
REMARK   3     L13:   -0.1184 L23:    1.2774                                    
REMARK   3    S TENSOR                                                          
REMARK   3     S11:    0.3845 S12:    0.8715 S13:   -0.1258                     
REMARK   3     S21:   -0.4789 S22:   -0.2147 S23:   -0.3881                     
REMARK   3     S31:   -0.2634 S32:    0.5223 S33:   -0.1698                     
REMARK   3                                                                      
REMARK   3   TLS GROUP :            2                                           
REMARK   3    SET : { B|* }                                                     
REMARK   3    ORIGIN FOR THE GROUP (A):  -18.5830    0.7127  -15.7088           
REMARK   3    T TENSOR                                                          
REMARK   3     T11:    0.0657 T22:   -0.0332                                    
REMARK   3     T33:   -0.3311 T12:    0.2282                                    
REMARK   3     T13:   -0.0049 T23:    0.0311                                    
REMARK   3    L TENSOR                                                          
REMARK   3     L11:    3.3078 L22:    2.7664                                    
REMARK   3     L33:    4.8245 L12:   -1.7854                                    
REMARK   3     L13:    0.2748 L23:    0.5819                                    
REMARK   3    S TENSOR                                                          
REMARK   3     S11:    0.4800 S12:    0.2809 S13:    0.2594                     
REMARK   3     S21:   -0.1609 S22:   -0.4627 S23:   -0.0110                     
REMARK   3     S31:    0.2200 S32:    0.0844 S33:   -0.0173                     
REMARK   3                                                                      
REMARK   3  REFINEMENT NOTES.                                                   
REMARK   3   NUMBER OF REFINEMENT NOTES :   1                                   
REMARK   3   NOTE   1 :  IDEAL-DIST CONTACT TERM CONTACT SETUP. RESIDUE         
REMARK   3               TYPES WITHOUT CCP4 ATOM TYPE IN LIBRARY=. NUMBER       
REMARK   3               OF ATOMS WITH PROPER CCP4 ATOM TYPE=1589. NUMBER       
REMARK   3               WITH APPROX DEFAULT CCP4 ATOM TYPE=0. NUMBER           
REMARK   3               TREATED BY BAD NON-BONDED CONTACTS=1.                  
REMARK   3
REMARK   3  OTHER REFINEMENT REMARKS: NULL
REMARK   3
REMARK 290                                                            
REMARK 290 CRYSTALLOGRAPHIC SYMMETRY                                  
REMARK 290 SYMMETRY OPERATORS FOR SPACE GROUP: P 43 2 2               
REMARK 290                                                            
REMARK 290      SYMOP   SYMMETRY                                      
REMARK 290     NNNMMM   OPERATOR                                      
REMARK 290       1555   X,Y,Z                                         
REMARK 290       2555   -X,-Y,1/2+Z                                   
REMARK 290       3555   -Y,X,3/4+Z                                    
REMARK 290       4555   Y,-X,1/4+Z                                    
REMARK 290       5555   -X,Y,-Z                                       
REMARK 290       6555   X,-Y,1/2-Z                                    
REMARK 290       7555   Y,X,1/4-Z                                     
REMARK 290       8555   -Y,-X,3/4-Z                                   
REMARK 290                                                            
REMARK 290     WHERE NNN -> OPERATOR NUMBER                           
REMARK 290           MMM -> TRANSLATION VECTOR                        
REMARK 290                                                            
REMARK 290 CRYSTALLOGRAPHIC SYMMETRY TRANSFORMATIONS                  
REMARK 290 THE FOLLOWING TRANSFORMATIONS OPERATE ON THE ATOM/HETATM   
REMARK 290 RECORDS IN THIS ENTRY TO PRODUCE CRYSTALLOGRAPHICALLY      
REMARK 290 RELATED MOLECULES.                                         
REMARK 290   SMTRY1   1  1.000000  0.000000  0.000000        0.00000
REMARK 290   SMTRY2   1  0.000000  1.000000  0.000000        0.00000
REMARK 290   SMTRY3   1  0.000000  0.000000  1.000000        0.00000
REMARK 290   SMTRY1   2 -1.000000  0.000000  0.000000        0.00000
REMARK 290   SMTRY2   2  0.000000 -1.000000  0.000000        0.00000
REMARK 290   SMTRY3   2  0.000000  0.000000  1.000000      108.56350
REMARK 290   SMTRY1   3  0.000000 -1.000000  0.000000        0.00000
REMARK 290   SMTRY2   3  1.000000  0.000000  0.000000        0.00000
REMARK 290   SMTRY3   3  0.000000  0.000000  1.000000      162.84525
REMARK 290   SMTRY1   4  0.000000  1.000000  0.000000        0.00000
REMARK 290   SMTRY2   4 -1.000000  0.000000  0.000000        0.00000
REMARK 290   SMTRY3   4  0.000000  0.000000  1.000000       54.28175
REMARK 290   SMTRY1   5 -1.000000  0.000000  0.000000        0.00000
REMARK 290   SMTRY2   5  0.000000  1.000000  0.000000        0.00000
REMARK 290   SMTRY3   5  0.000000  0.000000 -1.000000        0.00000
REMARK 290   SMTRY1   6  1.000000  0.000000  0.000000        0.00000
REMARK 290   SMTRY2   6  0.000000 -1.000000  0.000000        0.00000
REMARK 290   SMTRY3   6  0.000000  0.000000 -1.000000      108.56350
REMARK 290   SMTRY1   7  0.000000  1.000000  0.000000        0.00000
REMARK 290   SMTRY2   7  1.000000  0.000000  0.000000        0.00000
REMARK 290   SMTRY3   7  0.000000  0.000000 -1.000000       54.28175
REMARK 290   SMTRY1   8  0.000000 -1.000000  0.000000        0.00000
REMARK 290   SMTRY2   8 -1.000000  0.000000  0.000000        0.00000
REMARK 290   SMTRY3   8  0.000000  0.000000 -1.000000      162.84525
REMARK 290                                                            
REMARK 290 REMARK: NULL                                               
CRYST1   42.714   42.714  217.127  90.00  90.00  90.00 P 43 2 2       


$$$$
XX01ZVNS2B-x3439-ASAP-0029491
  PyMOL3.0          3D                             0

 28 31  0  0  0  0  0  0  0  0999 V2000
  -10.5720    3.8310  -18.2590 Cl  0  0  0  0  0  0  0  0  0  0  0  0
   -7.3590    2.6490  -13.5690 C   0  0  0  0  0  0  0  0  0  0  0  0
   -6.3090    2.4430  -12.7730 N   0  0  0  0  0  0  0  0  0  0  0  0
   -7.9850    1.7380  -14.0920 O   0  0  0  0  0  0  0  0  0  0  0  0
   -5.0770    3.2130  -12.8340 C   0  0  0  0  0  0  0  0  0  0  0  0
   -8.8890    4.4610  -12.8400 N   0  0  0  0  0  0  0  0  0  0  0  0
   -4.3600    3.0540  -14.1540 C   0  0  0  0  0  0  0  0  0  0  0  0
   -9.0400    2.4960   -7.2150 N   0  0  0  0  0  0  0  0  0  0  0  0
   -7.7980    4.1180  -13.7230 C   0  0  0  0  0  0  0  0  0  0  0  0
   -8.8060    4.3720  -11.4580 C   0  0  0  0  0  0  0  0  0  0  0  0
   -8.4920    5.5160  -10.7120 C   0  0  0  0  0  0  0  0  0  0  0  0
   -8.4850    5.4600   -9.3280 C   0  0  0  0  0  0  0  0  0  0  0  0
   -8.7940    4.2590   -8.6980 C   0  0  0  0  0  0  0  0  0  0  0  0
   -9.1640    3.1410   -9.4360 C   0  0  0  0  0  0  0  0  0  0  0  0
   -9.1830    3.1850  -10.8220 C   0  0  0  0  0  0  0  0  0  0  0  0
   -9.5290    2.0130   -8.5140 C   0  0  0  0  0  0  0  0  0  0  0  0
   -8.9410    3.9650   -7.2320 C   0  0  0  0  0  0  0  0  0  0  0  0
   -8.0270    4.4410  -15.1960 C   0  0  0  0  0  0  0  0  0  0  0  0
   -9.1460    4.0620  -15.9350 C   0  0  0  0  0  0  0  0  0  0  0  0
   -9.1920    4.3110  -17.2970 C   0  0  0  0  0  0  0  0  0  0  0  0
   -8.1630    4.9680  -17.9270 C   0  0  0  0  0  0  0  0  0  0  0  0
   -7.0650    5.4030  -17.2020 C   0  0  0  0  0  0  0  0  0  0  0  0
   -5.9070    6.0700  -17.8580 C   0  0  0  0  0  0  0  0  0  0  0  0
   -4.6120    5.3590  -18.0650 C   0  0  0  0  0  0  0  0  0  0  0  0
   -4.6820    6.4660  -17.1000 C   0  0  0  0  0  0  0  0  0  0  0  0
   -6.9900    5.0780  -15.8570 C   0  0  0  0  0  0  0  0  0  0  0  0
   -4.6730    1.8860  -14.7720 F   0  0  0  0  0  0  0  0  0  0  0  0
   -3.0170    3.0160  -13.9650 F   0  0  0  0  0  0  0  0  0  0  0  0
  2  3  1  0  0  0  0
  2  9  1  0  0  0  0
  3  5  1  0  0  0  0
  2  4  2  0  0  0  0
  5  7  1  0  0  0  0
  6 10  1  0  0  0  0
  7 27  1  0  0  0  0
  7 28  1  0  0  0  0
  8 17  1  0  0  0  0
  6  9  1  0  0  0  0
  9 18  1  0  0  0  0
 10 11  4  0  0  0  0
 10 15  4  0  0  0  0
 11 12  4  0  0  0  0
 12 13  4  0  0  0  0
 13 14  4  0  0  0  0
 13 17  1  0  0  0  0
 14 15  4  0  0  0  0
 14 16  1  0  0  0  0
  8 16  1  0  0  0  0
 18 19  4  0  0  0  0
 18 26  4  0  0  0  0
 19 20  4  0  0  0  0
  1 20  1  0  0  0  0
 20 21  4  0  0  0  0
 21 22  4  0  0  0  0
 22 23  1  0  0  0  0
 22 26  4  0  0  0  0
 23 24  1  0  0  0  0
 23 25  1  0  0  0  0
 24 25  1  0  0  0  0
M  END
>  <pdb_header>
REMARK --------------------- added by autoBUSTER ---------------------------------START
REMARK run at   = Tue Jul 23 14:18:09 BST 2024
REMARK     in   = /dls/labxchem/data/lb32627/lb32627-65/processing/analysis/model_building/XX01ZVNS2B-x3439
REMARK     user = kyf22269
REMARK     cmd  = \
REMARK            /dls_sw/apps/GPhL/BUSTER/20240123/autoBUSTER/bin/linux64/refine \
REMARK            -p \
REMARK            /dls/labxchem/data/lb32627/lb32627-65/processing/analysis/model_building/XX01ZVNS2B-x3439/cootOut/Refine_4/in.pdb \
REMARK            -m \
REMARK            /dls/labxchem/data/lb32627/lb32627-65/processing/analysis/model_building/XX01ZVNS2B-x3439/XX01ZVNS2B-x3439.free.mtz \
REMARK            -l \
REMARK            /dls/labxchem/data/lb32627/lb32627-65/processing/analysis/model_building/XX01ZVNS2B-x3439/ASAP-0029491-001.cif \
REMARK            -autoncs -M TLSbasic -d Refine_4
REMARK Files used:
REMARK   PDB              = Refine_4/pdbchk.pdb
REMARK   MTZ              = /dls/labxchem/data/lb32627/lb32627-65/processing/analysis/model_building/XX01ZVNS2B-x3439/XX01ZVNS2B-x3439.free.mtz
REMARK output written to subdirectory = Refine_4
REMARK best refinement for F,SIGF with R/Rfree 0.2329/0.2741
REMARK header records are copied from input PDB file (apart from REMARK 3!)
REMARK --------------------- added by autoBUSTER -----------------------------------END
REMARK --------------------- added by autoBUSTER -------------------------------
REMARK run at   = Tue Jul 23 13:36:08 BST 2024                                  
REMARK     in   = /dls/labxchem/data/lb32627/lb32627-65/processing/analysis/mode
REMARK     user = kyf22269                                                      
REMARK     cmd  = \                                                             
REMARK            /dls_sw/apps/GPhL/BUSTER/20240123/autoBUSTER/bin/linux64/refin
REMARK            -p \                                                          
REMARK            /dls/labxchem/data/lb32627/lb32627-65/processing/analysis/mode
REMARK            -m \                                                          
REMARK            /dls/labxchem/data/lb32627/lb32627-65/processing/analysis/mode
REMARK            -l \                                                          
REMARK            /dls/labxchem/data/lb32627/lb32627-65/processing/analysis/mode
REMARK            -autoncs -M TLSbasic -d Refine_3                              
REMARK Files used:                                                              
REMARK   PDB              = Refine_3/pdbchk.pdb                                 
REMARK   MTZ              = /dls/labxchem/data/lb32627/lb32627-65/processing/ana
REMARK output written to subdirectory = Refine_3                                
REMARK best refinement for F,SIGF with R/Rfree 0.2311/0.2857                    
REMARK header records are copied from input PDB file (apart from REMARK 3!)     
REMARK --------------------- added by autoBUSTER -------------------------------
REMARK --------------------- added by autoBUSTER -------------------------------
REMARK run at   = Tue Jul 23 13:05:38 BST 2024                                  
REMARK     in   = /dls/labxchem/data/lb32627/lb32627-65/processing/analysis/mode
REMARK     user = kyf22269                                                      
REMARK     cmd  = \                                                             
REMARK            /dls_sw/apps/GPhL/BUSTER/20240123/autoBUSTER/bin/linux64/refin
REMARK            -p \                                                          
REMARK            /dls/labxchem/data/lb32627/lb32627-65/processing/analysis/mode
REMARK            -m \                                                          
REMARK            /dls/labxchem/data/lb32627/lb32627-65/processing/analysis/mode
REMARK            -l \                                                          
REMARK            /dls/labxchem/data/lb32627/lb32627-65/processing/analysis/mode
REMARK            -autoncs -M TLSbasic -d Refine_2                              
REMARK Files used:                                                              
REMARK   PDB              = Refine_2/pdbchk.pdb                                 
REMARK   MTZ              = /dls/labxchem/data/lb32627/lb32627-65/processing/ana
REMARK output written to subdirectory = Refine_2                                
REMARK best refinement for F,SIGF with R/Rfree 0.2361/0.2865                    
REMARK header records are copied from input PDB file (apart from REMARK 3!)     
REMARK --------------------- added by autoBUSTER -------------------------------
REMARK --------------------- added by autoBUSTER -------------------------------
REMARK run at   = Tue Jul 23 11:51:18 BST 2024                                  
REMARK     in   = /dls/labxchem/data/lb32627/lb32627-65/processing/analysis/mode
REMARK     user = kyf22269                                                      
REMARK     cmd  = \                                                             
REMARK            /dls_sw/apps/GPhL/BUSTER/20240123/autoBUSTER/bin/linux64/refin
REMARK            -p \                                                          
REMARK            /dls/labxchem/data/lb32627/lb32627-65/processing/analysis/mode
REMARK            -m \                                                          
REMARK            /dls/labxchem/data/lb32627/lb32627-65/processing/analysis/mode
REMARK            -l \                                                          
REMARK            /dls/labxchem/data/lb32627/lb32627-65/processing/analysis/mode
REMARK            -autoncs -M TLSbasic -d Refine_1                              
REMARK Files used:                                                              
REMARK   PDB              = Refine_1/pdbchk.pdb                                 
REMARK   MTZ              = /dls/labxchem/data/lb32627/lb32627-65/processing/ana
REMARK output written to subdirectory = Refine_1                                
REMARK best refinement for F,SIGF with R/Rfree 0.2367/0.2897                    
REMARK header records are copied from input PDB file (apart from REMARK 3!)     
REMARK --------------------- added by autoBUSTER -------------------------------
HEADER    ----                                    23-FEB-23                     
TITLE     ---                                                                   
COMPND    ---                                                                   
EXPDTA    X-RAY DIFFRACTION
REMARK   2                                                            
REMARK   2 RESOLUTION.    2.16 ANGSTROMS.
REMARK   3
REMARK   3 REFINEMENT.
REMARK   3   PROGRAM     : BUSTER 2.10.4 (23-JAN-2024)
REMARK   3   AUTHORS     : BRICOGNE,BLANC,BRANDL,FLENSBURG,KELLER,
REMARK   3               : PACIOREK,ROVERSI,SHARFF,SMART,VONRHEIN,WOMACK;
REMARK   3               : MATTHEWS,TEN EYCK,TRONRUD
REMARK   3
REMARK   3  DATA USED IN REFINEMENT.
REMARK   3   RESOLUTION RANGE HIGH (ANGSTROMS) : 2.159
REMARK   3   RESOLUTION RANGE LOW  (ANGSTROMS) : 33.46
REMARK   3   DATA CUTOFF            (SIGMA(F)) : 0.000
REMARK   3   COMPLETENESS FOR RANGE        (%) : 97.3
REMARK   3   NUMBER OF REFLECTIONS             : 11255
REMARK   3
REMARK   3  FIT TO DATA USED IN REFINEMENT.
REMARK   3   CROSS-VALIDATION METHOD          : THROUGHOUT
REMARK   3   FREE R VALUE TEST SET SELECTION  : RANDOM
REMARK   3   R VALUE     (WORKING + TEST SET) : 0.2350
REMARK   3   R VALUE            (WORKING SET) : 0.2329
REMARK   3   FREE R VALUE                     : 0.2741
REMARK   3   FREE R VALUE TEST SET SIZE   (%) : 4.740
REMARK   3   FREE R VALUE TEST SET COUNT      : 534
REMARK   3   ESTIMATED ERROR OF FREE R VALUE  : NULL
REMARK   3
REMARK   3  FIT IN THE HIGHEST RESOLUTION BIN.
REMARK   3   TOTAL NUMBER OF BINS USED           : 27
REMARK   3   BIN RESOLUTION RANGE HIGH       (A) : 2.16
REMARK   3   BIN RESOLUTION RANGE LOW        (A) : 2.19
REMARK   3   BIN COMPLETENESS (WORKING+TEST) (%) : 83.56
REMARK   3   REFLECTIONS IN BIN   (WORKING+TEST) : 433
REMARK   3   BIN R VALUE          (WORKING+TEST) : 0.4127
REMARK   3   REFLECTIONS IN BIN    (WORKING SET) : 415
REMARK   3   BIN R VALUE           (WORKING SET) : 0.4121
REMARK   3   BIN FREE R VALUE                    : 0.4249
REMARK   3   BIN FREE R VALUE TEST SET SIZE  (%) : 4.16
REMARK   3   BIN FREE R VALUE TEST SET COUNT     : 18
REMARK   3   ESTIMATED ERROR OF BIN FREE R VALUE : NULL
REMARK   3
REMARK   3  NUMBER OF NON-HYDROGEN ATOMS USED IN REFINEMENT.
REMARK   3   PROTEIN ATOMS            : 1476
REMARK   3   NUCLEIC ACID ATOMS       : 0
REMARK   3   HETEROGEN ATOMS          : 36
REMARK   3   SOLVENT ATOMS            : 74
REMARK   3
REMARK   3  B VALUES.
REMARK   3   FROM WILSON PLOT           (A**2) : 51.53
REMARK   3   MEAN B VALUE      (OVERALL, A**2) : 59.19
REMARK   3   OVERALL ANISOTROPIC B VALUE.
REMARK   3    B11 (A**2) : -7.11120
REMARK   3    B22 (A**2) : -7.11120
REMARK   3    B33 (A**2) : 14.22250
REMARK   3    B12 (A**2) : 0.00000
REMARK   3    B13 (A**2) : 0.00000
REMARK   3    B23 (A**2) : 0.00000
REMARK   3
REMARK   3  ESTIMATED COORDINATE ERROR.
REMARK   3   ESD FROM LUZZATI PLOT                    (A) : 0.38
REMARK   3   DPI (BLOW EQ-10) BASED ON R VALUE        (A) : 0.332
REMARK   3   DPI (BLOW EQ-9) BASED ON FREE R VALUE    (A) : 0.234
REMARK   3   DPI (CRUICKSHANK) BASED ON R VALUE       (A) : 0.293
REMARK   3   DPI (CRUICKSHANK) BASED ON FREE R VALUE  (A) : 0.225
REMARK   3
REMARK   3   REFERENCES: BLOW, D. (2002) ACTA CRYST D58, 792-797
REMARK   3               CRUICKSHANK, D.W.J. (1999) ACTA CRYST D55, 583-601
REMARK   3
REMARK   3  CORRELATION COEFFICIENTS.
REMARK   3   CORRELATION COEFFICIENT FO-FC      : 0.930
REMARK   3   CORRELATION COEFFICIENT FO-FC FREE : 0.918
REMARK   3
REMARK   3  X-RAY WEIGHT : 7.38
REMARK   3
REMARK   3  GEOMETRY FUNCTION.                                                  
REMARK   3   RESTRAINT LIBRARIES.                                               
REMARK   3    NUMBER OF LIBRARIES USED :   9                                    
REMARK   3    LIBRARY  1 : protgeo_eh99.dat (V1.6.4.20) 20220523  STANDARD      
REMARK   3                 AMINO ACID DICTIONARY. BONDS AND ANGLES FROM         
REMARK   3                 ENGH AND HUBER EH99. OTHER VALUES BASED ON           
REMARK   3                 PREVIOUS TNT OR TAKEN FROM CCP4. INCLUDES            
REMARK   3                 HYDROGEN ATOMS.                                      
REMARK   3    LIBRARY  2 : exoticaa.dat (V1.3.4.17) 20231017  COLLECTION        
REMARK   3                 OF NON-STANDARD AMINO ACIDS, MAINLY EH91             
REMARK   3                 WITHOUT IDEAL DISTANCE INFO                          
REMARK   3    LIBRARY  3 : nuclgeo.dat (V1.13.4.9) 20221011                     
REMARK   3    LIBRARY  4 : bcorrel.dat (V1.15.10.2) 20190616                    
REMARK   3    LIBRARY  5 : contact.dat (V1.15.12.10) 20191121                   
REMARK   3    LIBRARY  6 : idealdist_contact.dat (V1.3.4.15) 20231124           
REMARK   3                 IDEAL-DISTANCE CONTACT TERM DATA AS USED IN          
REMARK   3                 PROLSQ. VALUES USED HERE ARE BASEd ON DATA           
REMARK   3                 HARVESTING OF PDB AS OF 20190109                     
REMARK   3    LIBRARY  7 : restraints for LIG from cif dictionary               
REMARK   3                 ASAP-0029491-001.cif                                 
REMARK   3    LIBRARY  8 : restraints for DMS (DIMETHYL SULFOXIDE) from         
REMARK   3                 cif dictionary DMS.cif; generated by grade2          
REMARK   3                 version 1.1.0a7 from                                 
REMARK   3                 PDB_chemical_components_definition_file              
REMARK   3                 ftp://ftp.ebi.ac.uk/pub/databases/msd/pdbechem_v     
REMARK   3                 2/D/DMS/DMS.cif using RDKit 2021.03.4                
REMARK   3                 ((DatabaseID PDB-DMS))                               
REMARK   3    LIBRARY  9 : assume.dat (V1.9.4.3) 20221011                       
REMARK   3                                                                      
REMARK   3   NUMBER OF GEOMETRIC FUNCTION TERMS DEFINED : 15                    
REMARK   3   TERM                          COUNT    WEIGHT   FUNCTION.          
REMARK   3    BOND LENGTHS              :   1572 ;   2.00 ;  HARMONIC           
REMARK   3    BOND ANGLES               :   2139 ;   2.00 ;  HARMONIC           
REMARK   3    TORSION ANGLES            :    542 ;   2.00 ;  SINUSOIDAL         
REMARK   3    TRIGONAL CARBON PLANES    :   NULL ;   NULL ;  NULL               
REMARK   3    GENERAL PLANES            :    269 ;   5.00 ;  HARMONIC           
REMARK   3    ISOTROPIC THERMAL FACTORS :   1572 ;  10.00 ;  HARMONIC           
REMARK   3    BAD NON-BONDED CONTACTS   :      0 ;   5.00 ;  SEMIHARMONIC       
REMARK   3    IMPROPER TORSIONS         :   NULL ;   NULL ;  NULL               
REMARK   3    PSEUDOROTATION ANGLES     :   NULL ;   NULL ;  NULL               
REMARK   3    CHIRAL IMPROPER TORSION   :    195 ;   5.00 ;  SEMIHARMONIC       
REMARK   3    SUM OF OCCUPANCIES        :   NULL ;   NULL ;  NULL               
REMARK   3    UTILITY DISTANCES         :   NULL ;   NULL ;  NULL               
REMARK   3    UTILITY ANGLES            :   NULL ;   NULL ;  NULL               
REMARK   3    UTILITY TORSION           :   NULL ;   NULL ;  NULL               
REMARK   3    IDEAL-DIST CONTACT TERM   :   1169 ;   4.00 ;  SEMIHARMONIC       
REMARK   3                                                                      
REMARK   3   RMS DEVIATIONS FROM IDEAL VALUES.                                  
REMARK   3   BOND LENGTHS                       (A) : 0.007                     
REMARK   3   BOND ANGLES                  (DEGREES) : 0.95                      
REMARK   3   PEPTIDE OMEGA TORSION ANGLES (DEGREES) : 2.94                      
REMARK   3   OTHER TORSION ANGLES         (DEGREES) : 20.52                     
REMARK   3                                                                      
REMARK   3   SIMILARITY.                                                        
REMARK   3    NCS.                                                              
REMARK   3     NCS METHOD: NONE                                                 
REMARK   3    TARGET RESTRAINTS.                                                
REMARK   3     TARGET REPRESENTATION : NONE                                     
REMARK   3     TARGET STRUCTURE : NULL                                          
REMARK   3                                                                      
REMARK   3  TLS DETAILS.                                                        
REMARK   3   NUMBER OF TLS GROUPS  :            2                               
REMARK   3                                                                      
REMARK   3   TLS GROUP :            1                                           
REMARK   3    SET : { A|* }                                                     
REMARK   3    ORIGIN FOR THE GROUP (A):  -13.7243   -2.0193  -19.4447           
REMARK   3    T TENSOR                                                          
REMARK   3     T11:   -0.0942 T22:   -0.0682                                    
REMARK   3     T33:   -0.2786 T12:    0.2029                                    
REMARK   3     T13:    0.1710 T23:    0.1416                                    
REMARK   3    L TENSOR                                                          
REMARK   3     L11:    4.8565 L22:    4.6172                                    
REMARK   3     L33:    5.2704 L12:   -1.6511                                    
REMARK   3     L13:    0.7699 L23:    1.3842                                    
REMARK   3    S TENSOR                                                          
REMARK   3     S11:    0.4760 S12:    0.5932 S13:    0.2946                     
REMARK   3     S21:   -0.5962 S22:   -0.4810 S23:   -0.4141                     
REMARK   3     S31:   -0.1429 S32:    0.5181 S33:    0.0050                     
REMARK   3                                                                      
REMARK   3   TLS GROUP :            2                                           
REMARK   3    SET : { B|* }                                                     
REMARK   3    ORIGIN FOR THE GROUP (A):  -18.2844    0.5493  -15.6429           
REMARK   3    T TENSOR                                                          
REMARK   3     T11:    0.0772 T22:   -0.0183                                    
REMARK   3     T33:   -0.0534 T12:    0.2189                                    
REMARK   3     T13:    0.0346 T23:    0.0486                                    
REMARK   3    L TENSOR                                                          
REMARK   3     L11:    2.4518 L22:    1.9759                                    
REMARK   3     L33:    2.9574 L12:   -1.4074                                    
REMARK   3     L13:    0.1990 L23:   -0.3588                                    
REMARK   3    S TENSOR                                                          
REMARK   3     S11:    0.5074 S12:    0.2000 S13:    0.1701                     
REMARK   3     S21:   -0.1589 S22:   -0.4704 S23:    0.0021                     
REMARK   3     S31:    0.1063 S32:    0.1865 S33:   -0.0370                     
REMARK   3                                                                      
REMARK   3  REFINEMENT NOTES.                                                   
REMARK   3   NUMBER OF REFINEMENT NOTES :   1                                   
REMARK   3   NOTE   1 :  IDEAL-DIST CONTACT TERM CONTACT SETUP. RESIDUE         
REMARK   3               TYPES WITHOUT CCP4 ATOM TYPE IN LIBRARY=. NUMBER       
REMARK   3               OF ATOMS WITH PROPER CCP4 ATOM TYPE=1610. NUMBER       
REMARK   3               WITH APPROX DEFAULT CCP4 ATOM TYPE=0. NUMBER           
REMARK   3               TREATED BY BAD NON-BONDED CONTACTS=1.                  
REMARK   3
REMARK   3  OTHER REFINEMENT REMARKS: NULL
REMARK   3
REMARK 290                                                            
REMARK 290 CRYSTALLOGRAPHIC SYMMETRY                                  
REMARK 290 SYMMETRY OPERATORS FOR SPACE GROUP: P 43 2 2               
REMARK 290                                                            
REMARK 290      SYMOP   SYMMETRY                                      
REMARK 290     NNNMMM   OPERATOR                                      
REMARK 290       1555   X,Y,Z                                         
REMARK 290       2555   -X,-Y,1/2+Z                                   
REMARK 290       3555   -Y,X,3/4+Z                                    
REMARK 290       4555   Y,-X,1/4+Z                                    
REMARK 290       5555   -X,Y,-Z                                       
REMARK 290       6555   X,-Y,1/2-Z                                    
REMARK 290       7555   Y,X,1/4-Z                                     
REMARK 290       8555   -Y,-X,3/4-Z                                   
REMARK 290                                                            
REMARK 290     WHERE NNN -> OPERATOR NUMBER                           
REMARK 290           MMM -> TRANSLATION VECTOR                        
REMARK 290                                                            
REMARK 290 CRYSTALLOGRAPHIC SYMMETRY TRANSFORMATIONS                  
REMARK 290 THE FOLLOWING TRANSFORMATIONS OPERATE ON THE ATOM/HETATM   
REMARK 290 RECORDS IN THIS ENTRY TO PRODUCE CRYSTALLOGRAPHICALLY      
REMARK 290 RELATED MOLECULES.                                         
REMARK 290   SMTRY1   1  1.000000  0.000000  0.000000        0.00000
REMARK 290   SMTRY2   1  0.000000  1.000000  0.000000        0.00000
REMARK 290   SMTRY3   1  0.000000  0.000000  1.000000        0.00000
REMARK 290   SMTRY1   2 -1.000000  0.000000  0.000000        0.00000
REMARK 290   SMTRY2   2  0.000000 -1.000000  0.000000        0.00000
REMARK 290   SMTRY3   2  0.000000  0.000000  1.000000      108.16100
REMARK 290   SMTRY1   3  0.000000 -1.000000  0.000000        0.00000
REMARK 290   SMTRY2   3  1.000000  0.000000  0.000000        0.00000
REMARK 290   SMTRY3   3  0.000000  0.000000  1.000000      162.24150
REMARK 290   SMTRY1   4  0.000000  1.000000  0.000000        0.00000
REMARK 290   SMTRY2   4 -1.000000  0.000000  0.000000        0.00000
REMARK 290   SMTRY3   4  0.000000  0.000000  1.000000       54.08050
REMARK 290   SMTRY1   5 -1.000000  0.000000  0.000000        0.00000
REMARK 290   SMTRY2   5  0.000000  1.000000  0.000000        0.00000
REMARK 290   SMTRY3   5  0.000000  0.000000 -1.000000        0.00000
REMARK 290   SMTRY1   6  1.000000  0.000000  0.000000        0.00000
REMARK 290   SMTRY2   6  0.000000 -1.000000  0.000000        0.00000
REMARK 290   SMTRY3   6  0.000000  0.000000 -1.000000      108.16100
REMARK 290   SMTRY1   7  0.000000  1.000000  0.000000        0.00000
REMARK 290   SMTRY2   7  1.000000  0.000000  0.000000        0.00000
REMARK 290   SMTRY3   7  0.000000  0.000000 -1.000000       54.08050
REMARK 290   SMTRY1   8  0.000000 -1.000000  0.000000        0.00000
REMARK 290   SMTRY2   8 -1.000000  0.000000  0.000000        0.00000
REMARK 290   SMTRY3   8  0.000000  0.000000 -1.000000      162.24150
REMARK 290                                                            
REMARK 290 REMARK: NULL                                               
CRYST1   42.593   42.593  216.322  90.00  90.00  90.00 P 43 2 2       


$$$$
XX01ZVNS2B-x3440-ASAP-0029424
  PyMOL3.0          3D                             0

 24 27  0  0  0  0  0  0  0  0999 V2000
  -11.2480    3.9420  -18.4730 Cl  0  0  0  0  0  0  0  0  0  0  0  0
   -8.2120    5.0740  -14.3770 C   0  0  0  0  0  0  0  0  0  0  0  0
   -9.0330    4.3560  -13.5750 N   0  0  0  0  0  0  0  0  0  0  0  0
   -7.3370    5.8190  -13.9370 O   0  0  0  0  0  0  0  0  0  0  0  0
   -9.1130    4.4430  -12.1580 C   0  0  0  0  0  0  0  0  0  0  0  0
   -8.8200    1.7110   -8.2820 N   0  0  0  0  0  0  0  0  0  0  0  0
   -9.2140    4.5970   -8.0190 O   0  0  0  0  0  0  0  0  0  0  0  0
   -8.7640    5.6210  -11.5100 C   0  0  0  0  0  0  0  0  0  0  0  0
   -6.1830    5.0340  -18.6880 N   0  0  0  0  0  0  0  0  0  0  0  0
   -8.8220    5.7080  -10.1350 C   0  0  0  0  0  0  0  0  0  0  0  0
   -5.2440    5.3290  -17.7460 N   0  0  0  0  0  0  0  0  0  0  0  0
   -9.1090    4.5810   -9.3840 C   0  0  0  0  0  0  0  0  0  0  0  0
   -9.4670    3.3830  -10.0060 C   0  0  0  0  0  0  0  0  0  0  0  0
   -9.4330    3.3220  -11.3950 C   0  0  0  0  0  0  0  0  0  0  0  0
   -9.8630    2.1870   -9.1780 C   0  0  0  0  0  0  0  0  0  0  0  0
   -8.7320    2.4710   -7.0330 C   0  0  0  0  0  0  0  0  0  0  0  0
   -8.2450    3.8860   -7.2430 C   0  0  0  0  0  0  0  0  0  0  0  0
   -8.3550    4.8860  -15.8610 C   0  0  0  0  0  0  0  0  0  0  0  0
   -9.5660    4.5160  -16.4370 C   0  0  0  0  0  0  0  0  0  0  0  0
   -9.6890    4.3540  -17.8030 C   0  0  0  0  0  0  0  0  0  0  0  0
   -8.6230    4.4870  -18.6750 C   0  0  0  0  0  0  0  0  0  0  0  0
   -7.3970    4.8470  -18.1240 C   0  0  0  0  0  0  0  0  0  0  0  0
   -5.8610    5.3290  -16.5780 C   0  0  0  0  0  0  0  0  0  0  0  0
   -7.2370    5.0330  -16.7380 C   0  0  0  0  0  0  0  0  0  0  0  0
  2  3  1  0  0  0  0
  2 18  1  0  0  0  0
  3  5  1  0  0  0  0
  2  4  2  0  0  0  0
  5  8  4  0  0  0  0
  5 14  4  0  0  0  0
  6 16  1  0  0  0  0
  8 10  4  0  0  0  0
  9 11  4  0  0  0  0
 10 12  4  0  0  0  0
 11 23  4  0  0  0  0
  7 12  1  0  0  0  0
 12 13  4  0  0  0  0
 13 14  4  0  0  0  0
 13 15  1  0  0  0  0
  6 15  1  0  0  0  0
 16 17  1  0  0  0  0
  7 17  1  0  0  0  0
 18 19  4  0  0  0  0
 18 24  4  0  0  0  0
 19 20  4  0  0  0  0
  1 20  1  0  0  0  0
 20 21  4  0  0  0  0
 21 22  4  0  0  0  0
  9 22  4  0  0  0  0
 22 24  4  0  0  0  0
 23 24  4  0  0  0  0
M  END
>  <pdb_header>
REMARK --------------------- added by autoBUSTER ---------------------------------START
REMARK run at   = Tue Jul 23 14:42:39 BST 2024
REMARK     in   = /dls/labxchem/data/lb32627/lb32627-65/processing/analysis/model_building/XX01ZVNS2B-x3440
REMARK     user = kyf22269
REMARK     cmd  = \
REMARK            /dls_sw/apps/GPhL/BUSTER/20240123/autoBUSTER/bin/linux64/refine \
REMARK            -p \
REMARK            /dls/labxchem/data/lb32627/lb32627-65/processing/analysis/model_building/XX01ZVNS2B-x3440/cootOut/Refine_3/in.pdb \
REMARK            -m \
REMARK            /dls/labxchem/data/lb32627/lb32627-65/processing/analysis/model_building/XX01ZVNS2B-x3440/XX01ZVNS2B-x3440.free.mtz \
REMARK            -l \
REMARK            /dls/labxchem/data/lb32627/lb32627-65/processing/analysis/model_building/XX01ZVNS2B-x3440/ASAP-0029424-001.cif \
REMARK            -autoncs -M TLSbasic -d Refine_3
REMARK Files used:
REMARK   PDB              = Refine_3/pdbchk.pdb
REMARK   MTZ              = /dls/labxchem/data/lb32627/lb32627-65/processing/analysis/model_building/XX01ZVNS2B-x3440/XX01ZVNS2B-x3440.free.mtz
REMARK output written to subdirectory = Refine_3
REMARK best refinement for F,SIGF with R/Rfree 0.2389/0.2936
REMARK header records are copied from input PDB file (apart from REMARK 3!)
REMARK --------------------- added by autoBUSTER -----------------------------------END
REMARK --------------------- added by autoBUSTER -------------------------------
REMARK run at   = Tue Jul 23 13:12:09 BST 2024                                  
REMARK     in   = /dls/labxchem/data/lb32627/lb32627-65/processing/analysis/mode
REMARK     user = kyf22269                                                      
REMARK     cmd  = \                                                             
REMARK            /dls_sw/apps/GPhL/BUSTER/20240123/autoBUSTER/bin/linux64/refin
REMARK            -p \                                                          
REMARK            /dls/labxchem/data/lb32627/lb32627-65/processing/analysis/mode
REMARK            -m \                                                          
REMARK            /dls/labxchem/data/lb32627/lb32627-65/processing/analysis/mode
REMARK            -l \                                                          
REMARK            /dls/labxchem/data/lb32627/lb32627-65/processing/analysis/mode
REMARK            -autoncs -M TLSbasic -d Refine_2                              
REMARK Files used:                                                              
REMARK   PDB              = Refine_2/pdbchk.pdb                                 
REMARK   MTZ              = /dls/labxchem/data/lb32627/lb32627-65/processing/ana
REMARK output written to subdirectory = Refine_2                                
REMARK best refinement for F,SIGF with R/Rfree 0.2432/0.3016                    
REMARK header records are copied from input PDB file (apart from REMARK 3!)     
REMARK --------------------- added by autoBUSTER -------------------------------
REMARK --------------------- added by autoBUSTER -------------------------------
REMARK run at   = Tue Jul 23 11:58:36 BST 2024                                  
REMARK     in   = /dls/labxchem/data/lb32627/lb32627-65/processing/analysis/mode
REMARK     user = kyf22269                                                      
REMARK     cmd  = \                                                             
REMARK            /dls_sw/apps/GPhL/BUSTER/20240123/autoBUSTER/bin/linux64/refin
REMARK            -p \                                                          
REMARK            /dls/labxchem/data/lb32627/lb32627-65/processing/analysis/mode
REMARK            -m \                                                          
REMARK            /dls/labxchem/data/lb32627/lb32627-65/processing/analysis/mode
REMARK            -l \                                                          
REMARK            /dls/labxchem/data/lb32627/lb32627-65/processing/analysis/mode
REMARK            -autoncs -M TLSbasic -d Refine_1                              
REMARK Files used:                                                              
REMARK   PDB              = Refine_1/pdbchk.pdb                                 
REMARK   MTZ              = /dls/labxchem/data/lb32627/lb32627-65/processing/ana
REMARK output written to subdirectory = Refine_1                                
REMARK best refinement for F,SIGF with R/Rfree 0.2564/0.3004                    
REMARK header records are copied from input PDB file (apart from REMARK 3!)     
REMARK --------------------- added by autoBUSTER -------------------------------
HEADER    ----                                    23-FEB-23                     
TITLE     ---                                                                   
COMPND    ---                                                                   
EXPDTA    X-RAY DIFFRACTION
REMARK   2                                                            
REMARK   2 RESOLUTION.    2.35 ANGSTROMS.
REMARK   3
REMARK   3 REFINEMENT.
REMARK   3   PROGRAM     : BUSTER 2.10.4 (23-JAN-2024)
REMARK   3   AUTHORS     : BRICOGNE,BLANC,BRANDL,FLENSBURG,KELLER,
REMARK   3               : PACIOREK,ROVERSI,SHARFF,SMART,VONRHEIN,WOMACK;
REMARK   3               : MATTHEWS,TEN EYCK,TRONRUD
REMARK   3
REMARK   3  DATA USED IN REFINEMENT.
REMARK   3   RESOLUTION RANGE HIGH (ANGSTROMS) : 2.351
REMARK   3   RESOLUTION RANGE LOW  (ANGSTROMS) : 42.58
REMARK   3   DATA CUTOFF            (SIGMA(F)) : 0.000
REMARK   3   COMPLETENESS FOR RANGE        (%) : 99.8
REMARK   3   NUMBER OF REFLECTIONS             : 9049
REMARK   3
REMARK   3  FIT TO DATA USED IN REFINEMENT.
REMARK   3   CROSS-VALIDATION METHOD          : THROUGHOUT
REMARK   3   FREE R VALUE TEST SET SELECTION  : RANDOM
REMARK   3   R VALUE     (WORKING + TEST SET) : 0.2416
REMARK   3   R VALUE            (WORKING SET) : 0.2389
REMARK   3   FREE R VALUE                     : 0.2936
REMARK   3   FREE R VALUE TEST SET SIZE   (%) : 4.760
REMARK   3   FREE R VALUE TEST SET COUNT      : 431
REMARK   3   ESTIMATED ERROR OF FREE R VALUE  : NULL
REMARK   3
REMARK   3  FIT IN THE HIGHEST RESOLUTION BIN.
REMARK   3   TOTAL NUMBER OF BINS USED           : 22
REMARK   3   BIN RESOLUTION RANGE HIGH       (A) : 2.35
REMARK   3   BIN RESOLUTION RANGE LOW        (A) : 2.39
REMARK   3   BIN COMPLETENESS (WORKING+TEST) (%) : 99.06
REMARK   3   REFLECTIONS IN BIN   (WORKING+TEST) : 431
REMARK   3   BIN R VALUE          (WORKING+TEST) : 0.3959
REMARK   3   REFLECTIONS IN BIN    (WORKING SET) : 411
REMARK   3   BIN R VALUE           (WORKING SET) : 0.3889
REMARK   3   BIN FREE R VALUE                    : 0.5246
REMARK   3   BIN FREE R VALUE TEST SET SIZE  (%) : 4.64
REMARK   3   BIN FREE R VALUE TEST SET COUNT     : 20
REMARK   3   ESTIMATED ERROR OF BIN FREE R VALUE : NULL
REMARK   3
REMARK   3  NUMBER OF NON-HYDROGEN ATOMS USED IN REFINEMENT.
REMARK   3   PROTEIN ATOMS            : 1476
REMARK   3   NUCLEIC ACID ATOMS       : 0
REMARK   3   HETEROGEN ATOMS          : 28
REMARK   3   SOLVENT ATOMS            : 48
REMARK   3
REMARK   3  B VALUES.
REMARK   3   FROM WILSON PLOT           (A**2) : 59.76
REMARK   3   MEAN B VALUE      (OVERALL, A**2) : 60.53
REMARK   3   OVERALL ANISOTROPIC B VALUE.
REMARK   3    B11 (A**2) : -5.12940
REMARK   3    B22 (A**2) : -5.12940
REMARK   3    B33 (A**2) : 10.25880
REMARK   3    B12 (A**2) : 0.00000
REMARK   3    B13 (A**2) : 0.00000
REMARK   3    B23 (A**2) : 0.00000
REMARK   3
REMARK   3  ESTIMATED COORDINATE ERROR.
REMARK   3   ESD FROM LUZZATI PLOT                    (A) : 0.36
REMARK   3   DPI (BLOW EQ-10) BASED ON R VALUE        (A) : 0.506
REMARK   3   DPI (BLOW EQ-9) BASED ON FREE R VALUE    (A) : 0.297
REMARK   3   DPI (CRUICKSHANK) BASED ON R VALUE       (A) : 0.422
REMARK   3   DPI (CRUICKSHANK) BASED ON FREE R VALUE  (A) : 0.287
REMARK   3
REMARK   3   REFERENCES: BLOW, D. (2002) ACTA CRYST D58, 792-797
REMARK   3               CRUICKSHANK, D.W.J. (1999) ACTA CRYST D55, 583-601
REMARK   3
REMARK   3  CORRELATION COEFFICIENTS.
REMARK   3   CORRELATION COEFFICIENT FO-FC      : 0.935
REMARK   3   CORRELATION COEFFICIENT FO-FC FREE : 0.910
REMARK   3
REMARK   3  X-RAY WEIGHT : 7.32
REMARK   3
REMARK   3  GEOMETRY FUNCTION.                                                  
REMARK   3   RESTRAINT LIBRARIES.                                               
REMARK   3    NUMBER OF LIBRARIES USED :   9                                    
REMARK   3    LIBRARY  1 : protgeo_eh99.dat (V1.6.4.20) 20220523  STANDARD      
REMARK   3                 AMINO ACID DICTIONARY. BONDS AND ANGLES FROM         
REMARK   3                 ENGH AND HUBER EH99. OTHER VALUES BASED ON           
REMARK   3                 PREVIOUS TNT OR TAKEN FROM CCP4. INCLUDES            
REMARK   3                 HYDROGEN ATOMS.                                      
REMARK   3    LIBRARY  2 : exoticaa.dat (V1.3.4.17) 20231017  COLLECTION        
REMARK   3                 OF NON-STANDARD AMINO ACIDS, MAINLY EH91             
REMARK   3                 WITHOUT IDEAL DISTANCE INFO                          
REMARK   3    LIBRARY  3 : nuclgeo.dat (V1.13.4.9) 20221011                     
REMARK   3    LIBRARY  4 : bcorrel.dat (V1.15.10.2) 20190616                    
REMARK   3    LIBRARY  5 : contact.dat (V1.15.12.10) 20191121                   
REMARK   3    LIBRARY  6 : idealdist_contact.dat (V1.3.4.15) 20231124           
REMARK   3                 IDEAL-DISTANCE CONTACT TERM DATA AS USED IN          
REMARK   3                 PROLSQ. VALUES USED HERE ARE BASEd ON DATA           
REMARK   3                 HARVESTING OF PDB AS OF 20190109                     
REMARK   3    LIBRARY  7 : restraints for LIG from cif dictionary               
REMARK   3                 ASAP-0029424-001.cif                                 
REMARK   3    LIBRARY  8 : restraints for DMS (DIMETHYL SULFOXIDE) from         
REMARK   3                 cif dictionary DMS.cif; generated by grade2          
REMARK   3                 version 1.1.0a7 from                                 
REMARK   3                 PDB_chemical_components_definition_file              
REMARK   3                 ftp://ftp.ebi.ac.uk/pub/databases/msd/pdbechem_v     
REMARK   3                 2/D/DMS/DMS.cif using RDKit 2021.03.4                
REMARK   3                 ((DatabaseID PDB-DMS))                               
REMARK   3    LIBRARY  9 : assume.dat (V1.9.4.3) 20221011                       
REMARK   3                                                                      
REMARK   3   NUMBER OF GEOMETRIC FUNCTION TERMS DEFINED : 15                    
REMARK   3   TERM                          COUNT    WEIGHT   FUNCTION.          
REMARK   3    BOND LENGTHS              :   1557 ;   2.00 ;  HARMONIC           
REMARK   3    BOND ANGLES               :   2117 ;   2.00 ;  HARMONIC           
REMARK   3    TORSION ANGLES            :    533 ;   2.00 ;  SINUSOIDAL         
REMARK   3    TRIGONAL CARBON PLANES    :   NULL ;   NULL ;  NULL               
REMARK   3    GENERAL PLANES            :    267 ;   5.00 ;  HARMONIC           
REMARK   3    ISOTROPIC THERMAL FACTORS :   1557 ;  10.00 ;  HARMONIC           
REMARK   3    BAD NON-BONDED CONTACTS   :      0 ;   5.00 ;  SEMIHARMONIC       
REMARK   3    IMPROPER TORSIONS         :   NULL ;   NULL ;  NULL               
REMARK   3    PSEUDOROTATION ANGLES     :   NULL ;   NULL ;  NULL               
REMARK   3    CHIRAL IMPROPER TORSION   :    192 ;   5.00 ;  SEMIHARMONIC       
REMARK   3    SUM OF OCCUPANCIES        :   NULL ;   NULL ;  NULL               
REMARK   3    UTILITY DISTANCES         :   NULL ;   NULL ;  NULL               
REMARK   3    UTILITY ANGLES            :   NULL ;   NULL ;  NULL               
REMARK   3    UTILITY TORSION           :   NULL ;   NULL ;  NULL               
REMARK   3    IDEAL-DIST CONTACT TERM   :   1115 ;   4.00 ;  SEMIHARMONIC       
REMARK   3                                                                      
REMARK   3   RMS DEVIATIONS FROM IDEAL VALUES.                                  
REMARK   3   BOND LENGTHS                       (A) : 0.007                     
REMARK   3   BOND ANGLES                  (DEGREES) : 0.92                      
REMARK   3   PEPTIDE OMEGA TORSION ANGLES (DEGREES) : 2.89                      
REMARK   3   OTHER TORSION ANGLES         (DEGREES) : 18.49                     
REMARK   3                                                                      
REMARK   3   SIMILARITY.                                                        
REMARK   3    NCS.                                                              
REMARK   3     NCS METHOD: NONE                                                 
REMARK   3    TARGET RESTRAINTS.                                                
REMARK   3     TARGET REPRESENTATION : NONE                                     
REMARK   3     TARGET STRUCTURE : NULL                                          
REMARK   3                                                                      
REMARK   3  TLS DETAILS.                                                        
REMARK   3   NUMBER OF TLS GROUPS  :            2                               
REMARK   3                                                                      
REMARK   3   TLS GROUP :            1                                           
REMARK   3    SET : { A|* }                                                     
REMARK   3    ORIGIN FOR THE GROUP (A):  -13.4665   -1.8859  -19.2258           
REMARK   3    T TENSOR                                                          
REMARK   3     T11:   -0.0708 T22:   -0.1713                                    
REMARK   3     T33:   -0.2676 T12:    0.1631                                    
REMARK   3     T13:    0.1072 T23:    0.0689                                    
REMARK   3    L TENSOR                                                          
REMARK   3     L11:    4.3190 L22:    4.4845                                    
REMARK   3     L33:    5.0353 L12:   -1.6803                                    
REMARK   3     L13:    0.4335 L23:    0.0198                                    
REMARK   3    S TENSOR                                                          
REMARK   3     S11:    0.3765 S12:    0.4728 S13:    0.2337                     
REMARK   3     S21:   -0.5318 S22:   -0.3441 S23:   -0.4106                     
REMARK   3     S31:   -0.1017 S32:    0.4209 S33:   -0.0324                     
REMARK   3                                                                      
REMARK   3   TLS GROUP :            2                                           
REMARK   3    SET : { B|* }                                                     
REMARK   3    ORIGIN FOR THE GROUP (A):  -18.3833    0.6617  -15.6498           
REMARK   3    T TENSOR                                                          
REMARK   3     T11:    0.0325 T22:   -0.0253                                    
REMARK   3     T33:   -0.0888 T12:    0.1968                                    
REMARK   3     T13:    0.0422 T23:    0.0601                                    
REMARK   3    L TENSOR                                                          
REMARK   3     L11:    2.0154 L22:    2.0848                                    
REMARK   3     L33:    2.4537 L12:   -1.2648                                    
REMARK   3     L13:    0.6693 L23:   -0.1628                                    
REMARK   3    S TENSOR                                                          
REMARK   3     S11:    0.4054 S12:    0.1785 S13:    0.1993                     
REMARK   3     S21:   -0.1838 S22:   -0.3940 S23:   -0.0569                     
REMARK   3     S31:    0.0315 S32:    0.1257 S33:   -0.0114                     
REMARK   3                                                                      
REMARK   3  REFINEMENT NOTES.                                                   
REMARK   3   NUMBER OF REFINEMENT NOTES :   1                                   
REMARK   3   NOTE   1 :  IDEAL-DIST CONTACT TERM CONTACT SETUP. RESIDUE         
REMARK   3               TYPES WITHOUT CCP4 ATOM TYPE IN LIBRARY=. NUMBER       
REMARK   3               OF ATOMS WITH PROPER CCP4 ATOM TYPE=1569. NUMBER       
REMARK   3               WITH APPROX DEFAULT CCP4 ATOM TYPE=0. NUMBER           
REMARK   3               TREATED BY BAD NON-BONDED CONTACTS=1.                  
REMARK   3
REMARK   3  OTHER REFINEMENT REMARKS: NULL
REMARK   3
REMARK 290                                                            
REMARK 290 CRYSTALLOGRAPHIC SYMMETRY                                  
REMARK 290 SYMMETRY OPERATORS FOR SPACE GROUP: P 43 2 2               
REMARK 290                                                            
REMARK 290      SYMOP   SYMMETRY                                      
REMARK 290     NNNMMM   OPERATOR                                      
REMARK 290       1555   X,Y,Z                                         
REMARK 290       2555   -X,-Y,1/2+Z                                   
REMARK 290       3555   -Y,X,3/4+Z                                    
REMARK 290       4555   Y,-X,1/4+Z                                    
REMARK 290       5555   -X,Y,-Z                                       
REMARK 290       6555   X,-Y,1/2-Z                                    
REMARK 290       7555   Y,X,1/4-Z                                     
REMARK 290       8555   -Y,-X,3/4-Z                                   
REMARK 290                                                            
REMARK 290     WHERE NNN -> OPERATOR NUMBER                           
REMARK 290           MMM -> TRANSLATION VECTOR                        
REMARK 290                                                            
REMARK 290 CRYSTALLOGRAPHIC SYMMETRY TRANSFORMATIONS                  
REMARK 290 THE FOLLOWING TRANSFORMATIONS OPERATE ON THE ATOM/HETATM   
REMARK 290 RECORDS IN THIS ENTRY TO PRODUCE CRYSTALLOGRAPHICALLY      
REMARK 290 RELATED MOLECULES.                                         
REMARK 290   SMTRY1   1  1.000000  0.000000  0.000000        0.00000
REMARK 290   SMTRY2   1  0.000000  1.000000  0.000000        0.00000
REMARK 290   SMTRY3   1  0.000000  0.000000  1.000000        0.00000
REMARK 290   SMTRY1   2 -1.000000  0.000000  0.000000        0.00000
REMARK 290   SMTRY2   2  0.000000 -1.000000  0.000000        0.00000
REMARK 290   SMTRY3   2  0.000000  0.000000  1.000000      108.19000
REMARK 290   SMTRY1   3  0.000000 -1.000000  0.000000        0.00000
REMARK 290   SMTRY2   3  1.000000  0.000000  0.000000        0.00000
REMARK 290   SMTRY3   3  0.000000  0.000000  1.000000      162.28500
REMARK 290   SMTRY1   4  0.000000  1.000000  0.000000        0.00000
REMARK 290   SMTRY2   4 -1.000000  0.000000  0.000000        0.00000
REMARK 290   SMTRY3   4  0.000000  0.000000  1.000000       54.09500
REMARK 290   SMTRY1   5 -1.000000  0.000000  0.000000        0.00000
REMARK 290   SMTRY2   5  0.000000  1.000000  0.000000        0.00000
REMARK 290   SMTRY3   5  0.000000  0.000000 -1.000000        0.00000
REMARK 290   SMTRY1   6  1.000000  0.000000  0.000000        0.00000
REMARK 290   SMTRY2   6  0.000000 -1.000000  0.000000        0.00000
REMARK 290   SMTRY3   6  0.000000  0.000000 -1.000000      108.19000
REMARK 290   SMTRY1   7  0.000000  1.000000  0.000000        0.00000
REMARK 290   SMTRY2   7  1.000000  0.000000  0.000000        0.00000
REMARK 290   SMTRY3   7  0.000000  0.000000 -1.000000       54.09500
REMARK 290   SMTRY1   8  0.000000 -1.000000  0.000000        0.00000
REMARK 290   SMTRY2   8 -1.000000  0.000000  0.000000        0.00000
REMARK 290   SMTRY3   8  0.000000  0.000000 -1.000000      162.28500
REMARK 290                                                            
REMARK 290 REMARK: NULL                                               
CRYST1   42.580   42.580  216.380  90.00  90.00  90.00 P 43 2 2       


$$$$
XX01ZVNS2B-x3441-ASAP-0029497
  PyMOL3.0          3D                             0

 22 25  0  0  0  0  0  0  0  0999 V2000
   -8.1690    4.9190  -14.0740 C   0  0  0  0  0  0  0  0  0  0  0  0
   -8.8590    4.0600  -13.2860 N   0  0  0  0  0  0  0  0  0  0  0  0
   -7.3770    5.7510  -13.6360 O   0  0  0  0  0  0  0  0  0  0  0  0
   -8.9660    4.0870  -11.8710 C   0  0  0  0  0  0  0  0  0  0  0  0
   -9.1630    2.4230   -7.5650 N   0  0  0  0  0  0  0  0  0  0  0  0
   -8.7230    5.2710  -11.1760 C   0  0  0  0  0  0  0  0  0  0  0  0
   -6.3330    5.1920  -18.4670 N   0  0  0  0  0  0  0  0  0  0  0  0
   -8.8040    5.3010   -9.7940 C   0  0  0  0  0  0  0  0  0  0  0  0
   -5.3840    5.5570  -17.5620 N   0  0  0  0  0  0  0  0  0  0  0  0
   -9.0950    4.1250   -9.1110 C   0  0  0  0  0  0  0  0  0  0  0  0
   -9.3580    2.9480   -9.8000 C   0  0  0  0  0  0  0  0  0  0  0  0
   -9.2540    2.9000  -11.1840 C   0  0  0  0  0  0  0  0  0  0  0  0
   -9.6930    1.8630   -8.8180 C   0  0  0  0  0  0  0  0  0  0  0  0
   -9.2650    3.8870   -7.6360 C   0  0  0  0  0  0  0  0  0  0  0  0
   -8.3580    4.7780  -15.5540 C   0  0  0  0  0  0  0  0  0  0  0  0
   -9.5600    4.3220  -16.0820 C   0  0  0  0  0  0  0  0  0  0  0  0
   -9.7230    4.2060  -17.4470 C   0  0  0  0  0  0  0  0  0  0  0  0
   -8.7250    4.4640  -18.3500 C   0  0  0  0  0  0  0  0  0  0  0  0
   -7.5040    4.9030  -17.8570 C   0  0  0  0  0  0  0  0  0  0  0  0
   -5.9400    5.4530  -16.3670 C   0  0  0  0  0  0  0  0  0  0  0  0
   -7.2920    5.0430  -16.4730 C   0  0  0  0  0  0  0  0  0  0  0  0
  -10.9270    3.7980  -17.9400 F   0  0  0  0  0  0  0  0  0  0  0  0
  1  2  1  0  0  0  0
  1 15  1  0  0  0  0
  2  4  1  0  0  0  0
  1  3  2  0  0  0  0
  4  6  4  0  0  0  0
  4 12  4  0  0  0  0
  5 14  1  0  0  0  0
  6  8  4  0  0  0  0
  7  9  4  0  0  0  0
  8 10  4  0  0  0  0
  9 20  4  0  0  0  0
 10 11  4  0  0  0  0
 10 14  1  0  0  0  0
 11 12  4  0  0  0  0
 11 13  1  0  0  0  0
  5 13  1  0  0  0  0
 15 16  4  0  0  0  0
 15 21  4  0  0  0  0
 16 17  4  0  0  0  0
 17 18  4  0  0  0  0
 17 22  1  0  0  0  0
 18 19  4  0  0  0  0
  7 19  4  0  0  0  0
 19 21  4  0  0  0  0
 20 21  4  0  0  0  0
M  END
>  <pdb_header>
REMARK --------------------- added by autoBUSTER ---------------------------------START
REMARK run at   = Tue Jul 23 13:16:38 BST 2024
REMARK     in   = /dls/labxchem/data/lb32627/lb32627-65/processing/analysis/model_building/XX01ZVNS2B-x3441
REMARK     user = kyf22269
REMARK     cmd  = \
REMARK            /dls_sw/apps/GPhL/BUSTER/20240123/autoBUSTER/bin/linux64/refine \
REMARK            -p \
REMARK            /dls/labxchem/data/lb32627/lb32627-65/processing/analysis/model_building/XX01ZVNS2B-x3441/cootOut/Refine_2/in.pdb \
REMARK            -m \
REMARK            /dls/labxchem/data/lb32627/lb32627-65/processing/analysis/model_building/XX01ZVNS2B-x3441/XX01ZVNS2B-x3441.free.mtz \
REMARK            -l \
REMARK            /dls/labxchem/data/lb32627/lb32627-65/processing/analysis/model_building/XX01ZVNS2B-x3441/ASAP-0029497-001.cif \
REMARK            -autoncs -M TLSbasic -d Refine_2
REMARK Files used:
REMARK   PDB              = Refine_2/pdbchk.pdb
REMARK   MTZ              = /dls/labxchem/data/lb32627/lb32627-65/processing/analysis/model_building/XX01ZVNS2B-x3441/XX01ZVNS2B-x3441.free.mtz
REMARK output written to subdirectory = Refine_2
REMARK best refinement for F,SIGF with R/Rfree 0.2393/0.2901
REMARK header records are copied from input PDB file (apart from REMARK 3!)
REMARK --------------------- added by autoBUSTER -----------------------------------END
REMARK --------------------- added by autoBUSTER -------------------------------
REMARK run at   = Tue Jul 23 12:03:06 BST 2024                                  
REMARK     in   = /dls/labxchem/data/lb32627/lb32627-65/processing/analysis/mode
REMARK     user = kyf22269                                                      
REMARK     cmd  = \                                                             
REMARK            /dls_sw/apps/GPhL/BUSTER/20240123/autoBUSTER/bin/linux64/refin
REMARK            -p \                                                          
REMARK            /dls/labxchem/data/lb32627/lb32627-65/processing/analysis/mode
REMARK            -m \                                                          
REMARK            /dls/labxchem/data/lb32627/lb32627-65/processing/analysis/mode
REMARK            -l \                                                          
REMARK            /dls/labxchem/data/lb32627/lb32627-65/processing/analysis/mode
REMARK            -autoncs -M TLSbasic -d Refine_1                              
REMARK Files used:                                                              
REMARK   PDB              = Refine_1/pdbchk.pdb                                 
REMARK   MTZ              = /dls/labxchem/data/lb32627/lb32627-65/processing/ana
REMARK output written to subdirectory = Refine_1                                
REMARK best refinement for F,SIGF with R/Rfree 0.2456/0.2995                    
REMARK header records are copied from input PDB file (apart from REMARK 3!)     
REMARK --------------------- added by autoBUSTER -------------------------------
HEADER    ----                                    23-FEB-23                     
TITLE     ---                                                                   
COMPND    ---                                                                   
EXPDTA    X-RAY DIFFRACTION
REMARK   2                                                            
REMARK   2 RESOLUTION.    2.19 ANGSTROMS.
REMARK   3
REMARK   3 REFINEMENT.
REMARK   3   PROGRAM     : BUSTER 2.10.4 (23-JAN-2024)
REMARK   3   AUTHORS     : BRICOGNE,BLANC,BRANDL,FLENSBURG,KELLER,
REMARK   3               : PACIOREK,ROVERSI,SHARFF,SMART,VONRHEIN,WOMACK;
REMARK   3               : MATTHEWS,TEN EYCK,TRONRUD
REMARK   3
REMARK   3  DATA USED IN REFINEMENT.
REMARK   3   RESOLUTION RANGE HIGH (ANGSTROMS) : 2.190
REMARK   3   RESOLUTION RANGE LOW  (ANGSTROMS) : 54.29
REMARK   3   DATA CUTOFF            (SIGMA(F)) : 0.000
REMARK   3   COMPLETENESS FOR RANGE        (%) : 95.0
REMARK   3   NUMBER OF REFLECTIONS             : 10561
REMARK   3
REMARK   3  FIT TO DATA USED IN REFINEMENT.
REMARK   3   CROSS-VALIDATION METHOD          : THROUGHOUT
REMARK   3   FREE R VALUE TEST SET SELECTION  : RANDOM
REMARK   3   R VALUE     (WORKING + TEST SET) : 0.2418
REMARK   3   R VALUE            (WORKING SET) : 0.2393
REMARK   3   FREE R VALUE                     : 0.2901
REMARK   3   FREE R VALUE TEST SET SIZE   (%) : 4.800
REMARK   3   FREE R VALUE TEST SET COUNT      : 507
REMARK   3   ESTIMATED ERROR OF FREE R VALUE  : NULL
REMARK   3
REMARK   3  FIT IN THE HIGHEST RESOLUTION BIN.
REMARK   3   TOTAL NUMBER OF BINS USED           : 26
REMARK   3   BIN RESOLUTION RANGE HIGH       (A) : 2.19
REMARK   3   BIN RESOLUTION RANGE LOW        (A) : 2.25
REMARK   3   BIN COMPLETENESS (WORKING+TEST) (%) : 47.95
REMARK   3   REFLECTIONS IN BIN   (WORKING+TEST) : 423
REMARK   3   BIN R VALUE          (WORKING+TEST) : 0.4622
REMARK   3   REFLECTIONS IN BIN    (WORKING SET) : 402
REMARK   3   BIN R VALUE           (WORKING SET) : 0.4606
REMARK   3   BIN FREE R VALUE                    : 0.4945
REMARK   3   BIN FREE R VALUE TEST SET SIZE  (%) : 4.96
REMARK   3   BIN FREE R VALUE TEST SET COUNT     : 21
REMARK   3   ESTIMATED ERROR OF BIN FREE R VALUE : NULL
REMARK   3
REMARK   3  NUMBER OF NON-HYDROGEN ATOMS USED IN REFINEMENT.
REMARK   3   PROTEIN ATOMS            : 1476
REMARK   3   NUCLEIC ACID ATOMS       : 0
REMARK   3   HETEROGEN ATOMS          : 26
REMARK   3   SOLVENT ATOMS            : 70
REMARK   3
REMARK   3  B VALUES.
REMARK   3   FROM WILSON PLOT           (A**2) : 50.05
REMARK   3   MEAN B VALUE      (OVERALL, A**2) : 58.70
REMARK   3   OVERALL ANISOTROPIC B VALUE.
REMARK   3    B11 (A**2) : -7.08780
REMARK   3    B22 (A**2) : -7.08780
REMARK   3    B33 (A**2) : 14.17550
REMARK   3    B12 (A**2) : 0.00000
REMARK   3    B13 (A**2) : 0.00000
REMARK   3    B23 (A**2) : 0.00000
REMARK   3
REMARK   3  ESTIMATED COORDINATE ERROR.
REMARK   3   ESD FROM LUZZATI PLOT                    (A) : 0.36
REMARK   3   DPI (BLOW EQ-10) BASED ON R VALUE        (A) : 0.381
REMARK   3   DPI (BLOW EQ-9) BASED ON FREE R VALUE    (A) : 0.261
REMARK   3   DPI (CRUICKSHANK) BASED ON R VALUE       (A) : 0.331
REMARK   3   DPI (CRUICKSHANK) BASED ON FREE R VALUE  (A) : 0.251
REMARK   3
REMARK   3   REFERENCES: BLOW, D. (2002) ACTA CRYST D58, 792-797
REMARK   3               CRUICKSHANK, D.W.J. (1999) ACTA CRYST D55, 583-601
REMARK   3
REMARK   3  CORRELATION COEFFICIENTS.
REMARK   3   CORRELATION COEFFICIENT FO-FC      : 0.929
REMARK   3   CORRELATION COEFFICIENT FO-FC FREE : 0.901
REMARK   3
REMARK   3  X-RAY WEIGHT : 7.35
REMARK   3
REMARK   3  GEOMETRY FUNCTION.                                                  
REMARK   3   RESTRAINT LIBRARIES.                                               
REMARK   3    NUMBER OF LIBRARIES USED :   9                                    
REMARK   3    LIBRARY  1 : protgeo_eh99.dat (V1.6.4.20) 20220523  STANDARD      
REMARK   3                 AMINO ACID DICTIONARY. BONDS AND ANGLES FROM         
REMARK   3                 ENGH AND HUBER EH99. OTHER VALUES BASED ON           
REMARK   3                 PREVIOUS TNT OR TAKEN FROM CCP4. INCLUDES            
REMARK   3                 HYDROGEN ATOMS.                                      
REMARK   3    LIBRARY  2 : exoticaa.dat (V1.3.4.17) 20231017  COLLECTION        
REMARK   3                 OF NON-STANDARD AMINO ACIDS, MAINLY EH91             
REMARK   3                 WITHOUT IDEAL DISTANCE INFO                          
REMARK   3    LIBRARY  3 : nuclgeo.dat (V1.13.4.9) 20221011                     
REMARK   3    LIBRARY  4 : bcorrel.dat (V1.15.10.2) 20190616                    
REMARK   3    LIBRARY  5 : contact.dat (V1.15.12.10) 20191121                   
REMARK   3    LIBRARY  6 : idealdist_contact.dat (V1.3.4.15) 20231124           
REMARK   3                 IDEAL-DISTANCE CONTACT TERM DATA AS USED IN          
REMARK   3                 PROLSQ. VALUES USED HERE ARE BASEd ON DATA           
REMARK   3                 HARVESTING OF PDB AS OF 20190109                     
REMARK   3    LIBRARY  7 : restraints for LIG from cif dictionary               
REMARK   3                 ASAP-0029497-001.cif                                 
REMARK   3    LIBRARY  8 : restraints for DMS (DIMETHYL SULFOXIDE) from         
REMARK   3                 cif dictionary DMS.cif; generated by grade2          
REMARK   3                 version 1.1.0a7 from                                 
REMARK   3                 PDB_chemical_components_definition_file              
REMARK   3                 ftp://ftp.ebi.ac.uk/pub/databases/msd/pdbechem_v     
REMARK   3                 2/D/DMS/DMS.cif using RDKit 2021.03.4                
REMARK   3                 ((DatabaseID PDB-DMS))                               
REMARK   3    LIBRARY  9 : assume.dat (V1.9.4.3) 20221011                       
REMARK   3                                                                      
REMARK   3   NUMBER OF GEOMETRIC FUNCTION TERMS DEFINED : 15                    
REMARK   3   TERM                          COUNT    WEIGHT   FUNCTION.          
REMARK   3    BOND LENGTHS              :   1571 ;   2.00 ;  HARMONIC           
REMARK   3    BOND ANGLES               :   2141 ;   2.00 ;  HARMONIC           
REMARK   3    TORSION ANGLES            :    537 ;   2.00 ;  SINUSOIDAL         
REMARK   3    TRIGONAL CARBON PLANES    :   NULL ;   NULL ;  NULL               
REMARK   3    GENERAL PLANES            :    271 ;   5.00 ;  HARMONIC           
REMARK   3    ISOTROPIC THERMAL FACTORS :   1571 ;  10.00 ;  HARMONIC           
REMARK   3    BAD NON-BONDED CONTACTS   :   NULL ;   NULL ;  NULL               
REMARK   3    IMPROPER TORSIONS         :   NULL ;   NULL ;  NULL               
REMARK   3    PSEUDOROTATION ANGLES     :   NULL ;   NULL ;  NULL               
REMARK   3    CHIRAL IMPROPER TORSION   :    196 ;   5.00 ;  SEMIHARMONIC       
REMARK   3    SUM OF OCCUPANCIES        :   NULL ;   NULL ;  NULL               
REMARK   3    UTILITY DISTANCES         :   NULL ;   NULL ;  NULL               
REMARK   3    UTILITY ANGLES            :   NULL ;   NULL ;  NULL               
REMARK   3    UTILITY TORSION           :   NULL ;   NULL ;  NULL               
REMARK   3    IDEAL-DIST CONTACT TERM   :   1162 ;   4.00 ;  SEMIHARMONIC       
REMARK   3                                                                      
REMARK   3   RMS DEVIATIONS FROM IDEAL VALUES.                                  
REMARK   3   BOND LENGTHS                       (A) : 0.007                     
REMARK   3   BOND ANGLES                  (DEGREES) : 0.91                      
REMARK   3   PEPTIDE OMEGA TORSION ANGLES (DEGREES) : 3.03                      
REMARK   3   OTHER TORSION ANGLES         (DEGREES) : 17.72                     
REMARK   3                                                                      
REMARK   3   SIMILARITY.                                                        
REMARK   3    NCS.                                                              
REMARK   3     NCS METHOD: NONE                                                 
REMARK   3    TARGET RESTRAINTS.                                                
REMARK   3     TARGET REPRESENTATION : NONE                                     
REMARK   3     TARGET STRUCTURE : NULL                                          
REMARK   3                                                                      
REMARK   3  TLS DETAILS.                                                        
REMARK   3   NUMBER OF TLS GROUPS  :            2                               
REMARK   3                                                                      
REMARK   3   TLS GROUP :            1                                           
REMARK   3    SET : { A|* }                                                     
REMARK   3    ORIGIN FOR THE GROUP (A):  -13.7607   -1.8096  -19.5804           
REMARK   3    T TENSOR                                                          
REMARK   3     T11:   -0.0405 T22:   -0.1324                                    
REMARK   3     T33:   -0.3413 T12:    0.2136                                    
REMARK   3     T13:    0.1476 T23:    0.1127                                    
REMARK   3    L TENSOR                                                          
REMARK   3     L11:    4.9841 L22:    5.5537                                    
REMARK   3     L33:    5.9900 L12:   -1.6713                                    
REMARK   3     L13:    0.7211 L23:    1.9289                                    
REMARK   3    S TENSOR                                                          
REMARK   3     S11:    0.4659 S12:    0.6186 S13:    0.2382                     
REMARK   3     S21:   -0.6579 S22:   -0.4284 S23:   -0.5201                     
REMARK   3     S31:   -0.1297 S32:    0.4303 S33:   -0.0375                     
REMARK   3                                                                      
REMARK   3   TLS GROUP :            2                                           
REMARK   3    SET : { B|* }                                                     
REMARK   3    ORIGIN FOR THE GROUP (A):  -18.4904    0.6809  -15.6705           
REMARK   3    T TENSOR                                                          
REMARK   3     T11:    0.0873 T22:   -0.0111                                    
REMARK   3     T33:   -0.1147 T12:    0.2240                                    
REMARK   3     T13:    0.0113 T23:    0.0205                                    
REMARK   3    L TENSOR                                                          
REMARK   3     L11:    1.7996 L22:    2.3801                                    
REMARK   3     L33:    3.4516 L12:   -1.1416                                    
REMARK   3     L13:    0.6404 L23:   -0.4807                                    
REMARK   3    S TENSOR                                                          
REMARK   3     S11:    0.4370 S12:    0.1900 S13:    0.1497                     
REMARK   3     S21:   -0.2384 S22:   -0.4055 S23:   -0.0012                     
REMARK   3     S31:    0.0700 S32:    0.1860 S33:   -0.0314                     
REMARK   3                                                                      
REMARK   3  REFINEMENT NOTES.                                                   
REMARK   3   NUMBER OF REFINEMENT NOTES :   1                                   
REMARK   3   NOTE   1 : IDEAL-DIST CONTACT TERM CONTACT SETUP. ALL ATOMS        
REMARK   3               HAVE CCP4 ATOM TYPE FROM LIBRARY                       
REMARK   3
REMARK   3  OTHER REFINEMENT REMARKS: NULL
REMARK   3
REMARK 290                                                            
REMARK 290 CRYSTALLOGRAPHIC SYMMETRY                                  
REMARK 290 SYMMETRY OPERATORS FOR SPACE GROUP: P 43 2 2               
REMARK 290                                                            
REMARK 290      SYMOP   SYMMETRY                                      
REMARK 290     NNNMMM   OPERATOR                                      
REMARK 290       1555   X,Y,Z                                         
REMARK 290       2555   -X,-Y,1/2+Z                                   
REMARK 290       3555   -Y,X,3/4+Z                                    
REMARK 290       4555   Y,-X,1/4+Z                                    
REMARK 290       5555   -X,Y,-Z                                       
REMARK 290       6555   X,-Y,1/2-Z                                    
REMARK 290       7555   Y,X,1/4-Z                                     
REMARK 290       8555   -Y,-X,3/4-Z                                   
REMARK 290                                                            
REMARK 290     WHERE NNN -> OPERATOR NUMBER                           
REMARK 290           MMM -> TRANSLATION VECTOR                        
REMARK 290                                                            
REMARK 290 CRYSTALLOGRAPHIC SYMMETRY TRANSFORMATIONS                  
REMARK 290 THE FOLLOWING TRANSFORMATIONS OPERATE ON THE ATOM/HETATM   
REMARK 290 RECORDS IN THIS ENTRY TO PRODUCE CRYSTALLOGRAPHICALLY      
REMARK 290 RELATED MOLECULES.                                         
REMARK 290   SMTRY1   1  1.000000  0.000000  0.000000        0.00000
REMARK 290   SMTRY2   1  0.000000  1.000000  0.000000        0.00000
REMARK 290   SMTRY3   1  0.000000  0.000000  1.000000        0.00000
REMARK 290   SMTRY1   2 -1.000000  0.000000  0.000000        0.00000
REMARK 290   SMTRY2   2  0.000000 -1.000000  0.000000        0.00000
REMARK 290   SMTRY3   2  0.000000  0.000000  1.000000      108.58700
REMARK 290   SMTRY1   3  0.000000 -1.000000  0.000000        0.00000
REMARK 290   SMTRY2   3  1.000000  0.000000  0.000000        0.00000
REMARK 290   SMTRY3   3  0.000000  0.000000  1.000000      162.88050
REMARK 290   SMTRY1   4  0.000000  1.000000  0.000000        0.00000
REMARK 290   SMTRY2   4 -1.000000  0.000000  0.000000        0.00000
REMARK 290   SMTRY3   4  0.000000  0.000000  1.000000       54.29350
REMARK 290   SMTRY1   5 -1.000000  0.000000  0.000000        0.00000
REMARK 290   SMTRY2   5  0.000000  1.000000  0.000000        0.00000
REMARK 290   SMTRY3   5  0.000000  0.000000 -1.000000        0.00000
REMARK 290   SMTRY1   6  1.000000  0.000000  0.000000        0.00000
REMARK 290   SMTRY2   6  0.000000 -1.000000  0.000000        0.00000
REMARK 290   SMTRY3   6  0.000000  0.000000 -1.000000      108.58700
REMARK 290   SMTRY1   7  0.000000  1.000000  0.000000        0.00000
REMARK 290   SMTRY2   7  1.000000  0.000000  0.000000        0.00000
REMARK 290   SMTRY3   7  0.000000  0.000000 -1.000000       54.29350
REMARK 290   SMTRY1   8  0.000000 -1.000000  0.000000        0.00000
REMARK 290   SMTRY2   8 -1.000000  0.000000  0.000000        0.00000
REMARK 290   SMTRY3   8  0.000000  0.000000 -1.000000      162.88050
REMARK 290                                                            
REMARK 290 REMARK: NULL                                               
CRYST1   42.495   42.495  217.174  90.00  90.00  90.00 P 43 2 2       


$$$$
XX01ZVNS2B-x3452-ASAP-0029394
  PyMOL3.0          3D                             0

 22 25  0  0  0  0  0  0  0  0999 V2000
   -8.1820    4.7090  -14.0220 C   0  0  0  0  0  0  0  0  0  0  0  0
   -8.9520    3.9200  -13.2360 N   0  0  0  0  0  0  0  0  0  0  0  0
   -7.3280    5.4700  -13.5710 O   0  0  0  0  0  0  0  0  0  0  0  0
   -9.0430    3.9540  -11.8150 C   0  0  0  0  0  0  0  0  0  0  0  0
   -9.1640    2.2680   -7.5120 N   0  0  0  0  0  0  0  0  0  0  0  0
   -8.7780    5.1300  -11.1160 C   0  0  0  0  0  0  0  0  0  0  0  0
   -6.3220    5.1630  -18.3140 N   0  0  0  0  0  0  0  0  0  0  0  0
   -8.8380    5.1540   -9.7320 C   0  0  0  0  0  0  0  0  0  0  0  0
   -5.4400    5.4580  -17.3510 N   0  0  0  0  0  0  0  0  0  0  0  0
   -9.1100    3.9740   -9.0500 C   0  0  0  0  0  0  0  0  0  0  0  0
   -6.0220    5.3010  -16.1890 N   0  0  0  0  0  0  0  0  0  0  0  0
   -9.3800    2.8010   -9.7410 C   0  0  0  0  0  0  0  0  0  0  0  0
   -9.3210    2.7660  -11.1270 C   0  0  0  0  0  0  0  0  0  0  0  0
   -9.6950    1.7060   -8.7610 C   0  0  0  0  0  0  0  0  0  0  0  0
   -9.2800    3.7310   -7.5770 C   0  0  0  0  0  0  0  0  0  0  0  0
   -8.3700    4.5970  -15.5060 C   0  0  0  0  0  0  0  0  0  0  0  0
   -9.5750    4.1700  -16.0560 C   0  0  0  0  0  0  0  0  0  0  0  0
   -9.7380    4.1180  -17.4260 C   0  0  0  0  0  0  0  0  0  0  0  0
   -8.7300    4.4040  -18.3080 C   0  0  0  0  0  0  0  0  0  0  0  0
   -7.5170    4.8190  -17.7790 C   0  0  0  0  0  0  0  0  0  0  0  0
   -7.3280    4.9150  -16.3980 C   0  0  0  0  0  0  0  0  0  0  0  0
  -10.9410    3.7400  -17.9440 F   0  0  0  0  0  0  0  0  0  0  0  0
  1  2  1  0  0  0  0
  1 16  1  0  0  0  0
  2  4  1  0  0  0  0
  1  3  2  0  0  0  0
  4  6  4  0  0  0  0
  4 13  4  0  0  0  0
  5 15  1  0  0  0  0
  6  8  4  0  0  0  0
  7  9  4  0  0  0  0
  8 10  4  0  0  0  0
  9 11  4  0  0  0  0
 10 12  4  0  0  0  0
 10 15  1  0  0  0  0
 11 21  4  0  0  0  0
 12 13  4  0  0  0  0
 12 14  1  0  0  0  0
  5 14  1  0  0  0  0
 16 17  4  0  0  0  0
 16 21  4  0  0  0  0
 17 18  4  0  0  0  0
 18 19  4  0  0  0  0
 18 22  1  0  0  0  0
 19 20  4  0  0  0  0
  7 20  4  0  0  0  0
 20 21  4  0  0  0  0
M  END
>  <pdb_header>
REMARK --------------------- added by autoBUSTER ---------------------------------START
REMARK run at   = Tue Jul 23 14:32:12 BST 2024
REMARK     in   = /dls/labxchem/data/lb32627/lb32627-65/processing/analysis/model_building/XX01ZVNS2B-x3452
REMARK     user = kyf22269
REMARK     cmd  = \
REMARK            /dls_sw/apps/GPhL/BUSTER/20240123/autoBUSTER/bin/linux64/refine \
REMARK            -p \
REMARK            /dls/labxchem/data/lb32627/lb32627-65/processing/analysis/model_building/XX01ZVNS2B-x3452/cootOut/Refine_2/in.pdb \
REMARK            -m \
REMARK            /dls/labxchem/data/lb32627/lb32627-65/processing/analysis/model_building/XX01ZVNS2B-x3452/XX01ZVNS2B-x3452.free.mtz \
REMARK            -l \
REMARK            /dls/labxchem/data/lb32627/lb32627-65/processing/analysis/model_building/XX01ZVNS2B-x3452/ASAP-0029394-001.cif \
REMARK            -autoncs -M TLSbasic -d Refine_2
REMARK Files used:
REMARK   PDB              = Refine_2/pdbchk.pdb
REMARK   MTZ              = /dls/labxchem/data/lb32627/lb32627-65/processing/analysis/model_building/XX01ZVNS2B-x3452/XX01ZVNS2B-x3452.free.mtz
REMARK output written to subdirectory = Refine_2
REMARK best refinement for F,SIGF with R/Rfree 0.2248/0.2595
REMARK header records are copied from input PDB file (apart from REMARK 3!)
REMARK --------------------- added by autoBUSTER -----------------------------------END
REMARK --------------------- added by autoBUSTER -------------------------------
REMARK run at   = Tue Jul 23 12:10:51 BST 2024                                  
REMARK     in   = /dls/labxchem/data/lb32627/lb32627-65/processing/analysis/mode
REMARK     user = kyf22269                                                      
REMARK     cmd  = \                                                             
REMARK            /dls_sw/apps/GPhL/BUSTER/20240123/autoBUSTER/bin/linux64/refin
REMARK            -p \                                                          
REMARK            /dls/labxchem/data/lb32627/lb32627-65/processing/analysis/mode
REMARK            -m \                                                          
REMARK            /dls/labxchem/data/lb32627/lb32627-65/processing/analysis/mode
REMARK            -l \                                                          
REMARK            /dls/labxchem/data/lb32627/lb32627-65/processing/analysis/mode
REMARK            -autoncs -M TLSbasic -d Refine_1                              
REMARK Files used:                                                              
REMARK   PDB              = Refine_1/pdbchk.pdb                                 
REMARK   MTZ              = /dls/labxchem/data/lb32627/lb32627-65/processing/ana
REMARK output written to subdirectory = Refine_1                                
REMARK best refinement for F,SIGF with R/Rfree 0.2296/0.2736                    
REMARK header records are copied from input PDB file (apart from REMARK 3!)     
REMARK --------------------- added by autoBUSTER -------------------------------
HEADER    ----                                    23-FEB-23                     
TITLE     ---                                                                   
COMPND    ---                                                                   
EXPDTA    X-RAY DIFFRACTION
REMARK   2                                                            
REMARK   2 RESOLUTION.    2.19 ANGSTROMS.
REMARK   3
REMARK   3 REFINEMENT.
REMARK   3   PROGRAM     : BUSTER 2.10.4 (23-JAN-2024)
REMARK   3   AUTHORS     : BRICOGNE,BLANC,BRANDL,FLENSBURG,KELLER,
REMARK   3               : PACIOREK,ROVERSI,SHARFF,SMART,VONRHEIN,WOMACK;
REMARK   3               : MATTHEWS,TEN EYCK,TRONRUD
REMARK   3
REMARK   3  DATA USED IN REFINEMENT.
REMARK   3   RESOLUTION RANGE HIGH (ANGSTROMS) : 2.190
REMARK   3   RESOLUTION RANGE LOW  (ANGSTROMS) : 54.20
REMARK   3   DATA CUTOFF            (SIGMA(F)) : 0.000
REMARK   3   COMPLETENESS FOR RANGE        (%) : 99.6
REMARK   3   NUMBER OF REFLECTIONS             : 11122
REMARK   3
REMARK   3  FIT TO DATA USED IN REFINEMENT.
REMARK   3   CROSS-VALIDATION METHOD          : THROUGHOUT
REMARK   3   FREE R VALUE TEST SET SELECTION  : RANDOM
REMARK   3   R VALUE     (WORKING + TEST SET) : 0.2266
REMARK   3   R VALUE            (WORKING SET) : 0.2248
REMARK   3   FREE R VALUE                     : 0.2595
REMARK   3   FREE R VALUE TEST SET SIZE   (%) : 4.770
REMARK   3   FREE R VALUE TEST SET COUNT      : 531
REMARK   3   ESTIMATED ERROR OF FREE R VALUE  : NULL
REMARK   3
REMARK   3  FIT IN THE HIGHEST RESOLUTION BIN.
REMARK   3   TOTAL NUMBER OF BINS USED           : 27
REMARK   3   BIN RESOLUTION RANGE HIGH       (A) : 2.19
REMARK   3   BIN RESOLUTION RANGE LOW        (A) : 2.22
REMARK   3   BIN COMPLETENESS (WORKING+TEST) (%) : 96.24
REMARK   3   REFLECTIONS IN BIN   (WORKING+TEST) : 428
REMARK   3   BIN R VALUE          (WORKING+TEST) : 0.3701
REMARK   3   REFLECTIONS IN BIN    (WORKING SET) : 411
REMARK   3   BIN R VALUE           (WORKING SET) : 0.3681
REMARK   3   BIN FREE R VALUE                    : 0.4176
REMARK   3   BIN FREE R VALUE TEST SET SIZE  (%) : 3.97
REMARK   3   BIN FREE R VALUE TEST SET COUNT     : 17
REMARK   3   ESTIMATED ERROR OF BIN FREE R VALUE : NULL
REMARK   3
REMARK   3  NUMBER OF NON-HYDROGEN ATOMS USED IN REFINEMENT.
REMARK   3   PROTEIN ATOMS            : 1476
REMARK   3   NUCLEIC ACID ATOMS       : 0
REMARK   3   HETEROGEN ATOMS          : 26
REMARK   3   SOLVENT ATOMS            : 79
REMARK   3
REMARK   3  B VALUES.
REMARK   3   FROM WILSON PLOT           (A**2) : 54.69
REMARK   3   MEAN B VALUE      (OVERALL, A**2) : 65.29
REMARK   3   OVERALL ANISOTROPIC B VALUE.
REMARK   3    B11 (A**2) : -6.64130
REMARK   3    B22 (A**2) : -6.64130
REMARK   3    B33 (A**2) : 13.28270
REMARK   3    B12 (A**2) : 0.00000
REMARK   3    B13 (A**2) : 0.00000
REMARK   3    B23 (A**2) : 0.00000
REMARK   3
REMARK   3  ESTIMATED COORDINATE ERROR.
REMARK   3   ESD FROM LUZZATI PLOT                    (A) : 0.32
REMARK   3   DPI (BLOW EQ-10) BASED ON R VALUE        (A) : 0.332
REMARK   3   DPI (BLOW EQ-9) BASED ON FREE R VALUE    (A) : 0.225
REMARK   3   DPI (CRUICKSHANK) BASED ON R VALUE       (A) : 0.288
REMARK   3   DPI (CRUICKSHANK) BASED ON FREE R VALUE  (A) : 0.216
REMARK   3
REMARK   3   REFERENCES: BLOW, D. (2002) ACTA CRYST D58, 792-797
REMARK   3               CRUICKSHANK, D.W.J. (1999) ACTA CRYST D55, 583-601
REMARK   3
REMARK   3  CORRELATION COEFFICIENTS.
REMARK   3   CORRELATION COEFFICIENT FO-FC      : 0.941
REMARK   3   CORRELATION COEFFICIENT FO-FC FREE : 0.922
REMARK   3
REMARK   3  X-RAY WEIGHT : 6.82
REMARK   3
REMARK   3  GEOMETRY FUNCTION.                                                  
REMARK   3   RESTRAINT LIBRARIES.                                               
REMARK   3    NUMBER OF LIBRARIES USED :   9                                    
REMARK   3    LIBRARY  1 : protgeo_eh99.dat (V1.6.4.20) 20220523  STANDARD      
REMARK   3                 AMINO ACID DICTIONARY. BONDS AND ANGLES FROM         
REMARK   3                 ENGH AND HUBER EH99. OTHER VALUES BASED ON           
REMARK   3                 PREVIOUS TNT OR TAKEN FROM CCP4. INCLUDES            
REMARK   3                 HYDROGEN ATOMS.                                      
REMARK   3    LIBRARY  2 : exoticaa.dat (V1.3.4.17) 20231017  COLLECTION        
REMARK   3                 OF NON-STANDARD AMINO ACIDS, MAINLY EH91             
REMARK   3                 WITHOUT IDEAL DISTANCE INFO                          
REMARK   3    LIBRARY  3 : nuclgeo.dat (V1.13.4.9) 20221011                     
REMARK   3    LIBRARY  4 : bcorrel.dat (V1.15.10.2) 20190616                    
REMARK   3    LIBRARY  5 : contact.dat (V1.15.12.10) 20191121                   
REMARK   3    LIBRARY  6 : idealdist_contact.dat (V1.3.4.15) 20231124           
REMARK   3                 IDEAL-DISTANCE CONTACT TERM DATA AS USED IN          
REMARK   3                 PROLSQ. VALUES USED HERE ARE BASEd ON DATA           
REMARK   3                 HARVESTING OF PDB AS OF 20190109                     
REMARK   3    LIBRARY  7 : restraints for LIG from cif dictionary               
REMARK   3                 ASAP-0029394-001.cif                                 
REMARK   3    LIBRARY  8 : restraints for DMS (DIMETHYL SULFOXIDE) from         
REMARK   3                 cif dictionary DMS.cif; generated by grade2          
REMARK   3                 version 1.1.0a7 from                                 
REMARK   3                 PDB_chemical_components_definition_file              
REMARK   3                 ftp://ftp.ebi.ac.uk/pub/databases/msd/pdbechem_v     
REMARK   3                 2/D/DMS/DMS.cif using RDKit 2021.03.4                
REMARK   3                 ((DatabaseID PDB-DMS))                               
REMARK   3    LIBRARY  9 : assume.dat (V1.9.4.3) 20221011                       
REMARK   3                                                                      
REMARK   3   NUMBER OF GEOMETRIC FUNCTION TERMS DEFINED : 15                    
REMARK   3   TERM                          COUNT    WEIGHT   FUNCTION.          
REMARK   3    BOND LENGTHS              :   1567 ;   2.00 ;  HARMONIC           
REMARK   3    BOND ANGLES               :   2134 ;   2.00 ;  HARMONIC           
REMARK   3    TORSION ANGLES            :    534 ;   2.00 ;  SINUSOIDAL         
REMARK   3    TRIGONAL CARBON PLANES    :   NULL ;   NULL ;  NULL               
REMARK   3    GENERAL PLANES            :    269 ;   5.00 ;  HARMONIC           
REMARK   3    ISOTROPIC THERMAL FACTORS :   1567 ;  10.00 ;  HARMONIC           
REMARK   3    BAD NON-BONDED CONTACTS   :   NULL ;   NULL ;  NULL               
REMARK   3    IMPROPER TORSIONS         :   NULL ;   NULL ;  NULL               
REMARK   3    PSEUDOROTATION ANGLES     :   NULL ;   NULL ;  NULL               
REMARK   3    CHIRAL IMPROPER TORSION   :    195 ;   5.00 ;  SEMIHARMONIC       
REMARK   3    SUM OF OCCUPANCIES        :   NULL ;   NULL ;  NULL               
REMARK   3    UTILITY DISTANCES         :   NULL ;   NULL ;  NULL               
REMARK   3    UTILITY ANGLES            :   NULL ;   NULL ;  NULL               
REMARK   3    UTILITY TORSION           :   NULL ;   NULL ;  NULL               
REMARK   3    IDEAL-DIST CONTACT TERM   :   1153 ;   4.00 ;  SEMIHARMONIC       
REMARK   3                                                                      
REMARK   3   RMS DEVIATIONS FROM IDEAL VALUES.                                  
REMARK   3   BOND LENGTHS                       (A) : 0.007                     
REMARK   3   BOND ANGLES                  (DEGREES) : 0.96                      
REMARK   3   PEPTIDE OMEGA TORSION ANGLES (DEGREES) : 3.21                      
REMARK   3   OTHER TORSION ANGLES         (DEGREES) : 17.01                     
REMARK   3                                                                      
REMARK   3   SIMILARITY.                                                        
REMARK   3    NCS.                                                              
REMARK   3     NCS METHOD: NONE                                                 
REMARK   3    TARGET RESTRAINTS.                                                
REMARK   3     TARGET REPRESENTATION : NONE                                     
REMARK   3     TARGET STRUCTURE : NULL                                          
REMARK   3                                                                      
REMARK   3  TLS DETAILS.                                                        
REMARK   3   NUMBER OF TLS GROUPS  :            2                               
REMARK   3                                                                      
REMARK   3   TLS GROUP :            1                                           
REMARK   3    SET : { A|* }                                                     
REMARK   3    ORIGIN FOR THE GROUP (A):  -13.7865   -1.8742  -19.5222           
REMARK   3    T TENSOR                                                          
REMARK   3     T11:   -0.0077 T22:   -0.0309                                    
REMARK   3     T33:   -0.3364 T12:    0.2527                                    
REMARK   3     T13:    0.1499 T23:    0.1111                                    
REMARK   3    L TENSOR                                                          
REMARK   3     L11:    4.8303 L22:    5.0900                                    
REMARK   3     L33:    5.2883 L12:   -2.1496                                    
REMARK   3     L13:    1.1530 L23:    0.7787                                    
REMARK   3    S TENSOR                                                          
REMARK   3     S11:    0.5783 S12:    0.6476 S13:    0.3211                     
REMARK   3     S21:   -0.7423 S22:   -0.5101 S23:   -0.4811                     
REMARK   3     S31:   -0.0656 S32:    0.6070 S33:   -0.0682                     
REMARK   3                                                                      
REMARK   3   TLS GROUP :            2                                           
REMARK   3    SET : { B|* }                                                     
REMARK   3    ORIGIN FOR THE GROUP (A):  -18.5545    0.6163  -15.6278           
REMARK   3    T TENSOR                                                          
REMARK   3     T11:    0.1204 T22:   -0.0000                                    
REMARK   3     T33:   -0.1583 T12:    0.2301                                    
REMARK   3     T13:    0.0217 T23:    0.0252                                    
REMARK   3    L TENSOR                                                          
REMARK   3     L11:    1.8984 L22:    2.3941                                    
REMARK   3     L33:    3.0936 L12:   -1.6108                                    
REMARK   3     L13:    0.7226 L23:   -0.2184                                    
REMARK   3    S TENSOR                                                          
REMARK   3     S11:    0.4793 S12:    0.1838 S13:    0.2093                     
REMARK   3     S21:   -0.2547 S22:   -0.4250 S23:   -0.0074                     
REMARK   3     S31:    0.0760 S32:    0.2112 S33:   -0.0543                     
REMARK   3                                                                      
REMARK   3  REFINEMENT NOTES.                                                   
REMARK   3   NUMBER OF REFINEMENT NOTES :   1                                   
REMARK   3   NOTE   1 : IDEAL-DIST CONTACT TERM CONTACT SETUP. ALL ATOMS        
REMARK   3               HAVE CCP4 ATOM TYPE FROM LIBRARY                       
REMARK   3
REMARK   3  OTHER REFINEMENT REMARKS: NULL
REMARK   3
REMARK 290                                                            
REMARK 290 CRYSTALLOGRAPHIC SYMMETRY                                  
REMARK 290 SYMMETRY OPERATORS FOR SPACE GROUP: P 43 2 2               
REMARK 290                                                            
REMARK 290      SYMOP   SYMMETRY                                      
REMARK 290     NNNMMM   OPERATOR                                      
REMARK 290       1555   X,Y,Z                                         
REMARK 290       2555   -X,-Y,1/2+Z                                   
REMARK 290       3555   -Y,X,3/4+Z                                    
REMARK 290       4555   Y,-X,1/4+Z                                    
REMARK 290       5555   -X,Y,-Z                                       
REMARK 290       6555   X,-Y,1/2-Z                                    
REMARK 290       7555   Y,X,1/4-Z                                     
REMARK 290       8555   -Y,-X,3/4-Z                                   
REMARK 290                                                            
REMARK 290     WHERE NNN -> OPERATOR NUMBER                           
REMARK 290           MMM -> TRANSLATION VECTOR                        
REMARK 290                                                            
REMARK 290 CRYSTALLOGRAPHIC SYMMETRY TRANSFORMATIONS                  
REMARK 290 THE FOLLOWING TRANSFORMATIONS OPERATE ON THE ATOM/HETATM   
REMARK 290 RECORDS IN THIS ENTRY TO PRODUCE CRYSTALLOGRAPHICALLY      
REMARK 290 RELATED MOLECULES.                                         
REMARK 290   SMTRY1   1  1.000000  0.000000  0.000000        0.00000
REMARK 290   SMTRY2   1  0.000000  1.000000  0.000000        0.00000
REMARK 290   SMTRY3   1  0.000000  0.000000  1.000000        0.00000
REMARK 290   SMTRY1   2 -1.000000  0.000000  0.000000        0.00000
REMARK 290   SMTRY2   2  0.000000 -1.000000  0.000000        0.00000
REMARK 290   SMTRY3   2  0.000000  0.000000  1.000000      108.40900
REMARK 290   SMTRY1   3  0.000000 -1.000000  0.000000        0.00000
REMARK 290   SMTRY2   3  1.000000  0.000000  0.000000        0.00000
REMARK 290   SMTRY3   3  0.000000  0.000000  1.000000      162.61350
REMARK 290   SMTRY1   4  0.000000  1.000000  0.000000        0.00000
REMARK 290   SMTRY2   4 -1.000000  0.000000  0.000000        0.00000
REMARK 290   SMTRY3   4  0.000000  0.000000  1.000000       54.20450
REMARK 290   SMTRY1   5 -1.000000  0.000000  0.000000        0.00000
REMARK 290   SMTRY2   5  0.000000  1.000000  0.000000        0.00000
REMARK 290   SMTRY3   5  0.000000  0.000000 -1.000000        0.00000
REMARK 290   SMTRY1   6  1.000000  0.000000  0.000000        0.00000
REMARK 290   SMTRY2   6  0.000000 -1.000000  0.000000        0.00000
REMARK 290   SMTRY3   6  0.000000  0.000000 -1.000000      108.40900
REMARK 290   SMTRY1   7  0.000000  1.000000  0.000000        0.00000
REMARK 290   SMTRY2   7  1.000000  0.000000  0.000000        0.00000
REMARK 290   SMTRY3   7  0.000000  0.000000 -1.000000       54.20450
REMARK 290   SMTRY1   8  0.000000 -1.000000  0.000000        0.00000
REMARK 290   SMTRY2   8 -1.000000  0.000000  0.000000        0.00000
REMARK 290   SMTRY3   8  0.000000  0.000000 -1.000000      162.61350
REMARK 290                                                            
REMARK 290 REMARK: NULL                                               
CRYST1   42.615   42.615  216.818  90.00  90.00  90.00 P 43 2 2       


$$$$
