XX01ZVNS2B-x0130_B_204_XX01ZVNS2B-x0130+B+204+1
     RDKit          3D

 17 18  0  0  0  0  0  0  0  0999 V2000
  -22.2140   -6.5440   -6.3950 F   0  0  0  0  0  0  0  0  0  0  0  0
  -23.4420   -6.8120   -5.8750 C   0  0  0  0  0  0  0  0  0  0  0  0
  -24.1660   -7.8540   -6.4020 C   0  0  0  0  0  0  0  0  0  0  0  0
  -23.5950   -8.6380   -7.3530 F   0  0  0  0  0  0  0  0  0  0  0  0
  -25.4610   -8.0830   -6.0050 C   0  0  0  0  0  0  0  0  0  0  0  0
  -26.0360   -7.2300   -5.0740 C   0  0  0  0  0  0  0  0  0  0  0  0
  -23.9850   -5.9750   -4.9270 C   0  0  0  0  0  0  0  0  0  0  0  0
  -25.3130   -6.1600   -4.5430 C   0  0  0  0  0  0  0  0  0  0  0  0
  -26.0080   -5.1590   -3.6710 C   0  0  0  0  0  0  0  0  0  0  0  0
  -26.3610   -4.0930   -4.1430 O   0  0  0  0  0  0  0  0  0  0  0  0
  -26.1710   -5.4460   -2.3600 N   0  0  0  0  0  0  0  0  0  0  0  0
  -25.6230   -6.6670   -1.7460 C   0  0  0  0  0  0  0  0  0  0  0  0
  -26.2260   -6.8980   -0.3860 C   0  0  0  0  0  0  0  0  0  0  0  0
  -26.8200   -4.5130   -1.4290 C   0  0  0  0  0  0  0  0  0  0  0  0
  -27.9380   -5.2060   -0.6060 C   0  0  0  0  0  0  0  0  0  0  0  0
  -27.6630   -6.6360   -0.3990 N   0  0  0  0  0  0  0  0  0  0  0  0
  -28.2950   -7.1240    0.8520 C   0  0  0  0  0  0  0  0  0  0  0  0
 17 16  1  0
 16 13  1  0
 13 12  1  0
 12 11  1  0
 14 11  1  0
 15 14  1  0
 16 15  1  0
 11  9  1  0
 10  9  2  0
  9  8  1  0
  8  6  1  0
  6  5  2  0
  5  3  1  0
  4  3  1  0
  3  2  2  0
  2  1  1  0
  7  2  1  0
  8  7  2  0
M  END
