A71EV2A-x0732_A_201_1_A71EV2A-x0526+A+147+1
     RDKit          3D

 14 14  0  0  0  0  0  0  0  0999 V2000
    5.4820   13.1750   22.5460 O   0  0  0  0  0  0  0  0  0  0  0  0
    6.0340   13.9560   23.3180 C   0  0  0  0  0  0  0  0  0  0  0  0
    5.8230   15.4460   23.1630 C   0  0  0  0  0  0  0  0  0  0  0  0
    5.5290   16.0690   24.3990 O   0  0  0  0  0  0  0  0  0  0  0  0
    6.8520   13.5780   24.3260 N   0  0  0  0  0  0  0  0  0  0  0  0
    7.7620   12.4870   24.2300 C   0  0  0  0  0  0  0  0  0  0  0  0
    7.4600   11.2880   24.8820 C   0  0  0  0  0  0  0  0  0  0  0  0
    6.3210   11.1850   25.8630 C   0  0  0  0  0  0  0  0  0  0  0  0
    8.2730   10.1860   24.6350 C   0  0  0  0  0  0  0  0  0  0  0  0
    8.8860   12.6040   23.4060 C   0  0  0  0  0  0  0  0  0  0  0  0
    9.2680   13.9090   22.7550 C   0  0  0  0  0  0  0  0  0  0  0  0
    9.6680   11.4720   23.2000 C   0  0  0  0  0  0  0  0  0  0  0  0
    9.3700   10.2510   23.7870 C   0  0  0  0  0  0  0  0  0  0  0  0
   10.1800    9.0210   23.4680 C   0  0  0  0  0  0  0  0  0  0  0  0
 14 13  1  0
 13  9  2  0
  9  7  1  0
  8  7  1  0
  7  6  2  0
  6  5  1  0
  5  2  1  0
  2  1  2  0
  3  2  1  0
  4  3  1  0
 10  6  1  0
 11 10  1  0
 12 10  2  0
 13 12  1  0
M  END
