XX01ZVNS2B-x1495_B_301_XX01ZVNS2B-x1291+B+301+1
     RDKit          3D

 20 22  0  0  0  0  0  0  0  0999 V2000
   -9.0280    1.8270   -8.0140 C   0  0  0  0  0  0  0  0  0  0  0  0
   -8.8660    2.8970   -9.0420 C   0  0  0  0  0  0  0  0  0  0  0  0
   -8.7120    4.2470   -8.9180 C   0  0  0  0  0  0  0  0  0  0  0  0
   -8.6050    4.7630  -10.1970 N   0  0  0  0  0  0  0  0  0  0  0  0
   -8.4350    6.0510  -10.6490 C   0  0  0  0  0  0  0  0  0  0  0  0
   -8.3580    6.2830  -11.9640 C   0  0  0  0  0  0  0  0  0  0  0  0
   -8.4460    5.2280  -12.8840 C   0  0  0  0  0  0  0  0  0  0  0  0
   -8.3620    5.4900  -14.3590 C   0  0  0  0  0  0  0  0  0  0  0  0
   -8.9940    6.4080  -14.8650 O   0  0  0  0  0  0  0  0  0  0  0  0
   -7.5810    4.6520  -15.0760 N   0  0  0  0  0  0  0  0  0  0  0  0
   -7.2240    4.7690  -16.4510 C   0  0  0  0  0  0  0  0  0  0  0  0
   -5.9890    5.2670  -16.8400 C   0  0  0  0  0  0  0  0  0  0  0  0
   -5.7110    5.3550  -18.1810 C   0  0  0  0  0  0  0  0  0  0  0  0
   -6.5570    4.9770  -19.1450 N   0  0  0  0  0  0  0  0  0  0  0  0
   -7.7530    4.4950  -18.7700 C   0  0  0  0  0  0  0  0  0  0  0  0
   -8.1280    4.3690  -17.4390 C   0  0  0  0  0  0  0  0  0  0  0  0
   -9.4820    3.8150  -17.0920 C   0  0  0  0  0  0  0  0  0  0  0  0
   -8.6180    3.9270  -12.4480 C   0  0  0  0  0  0  0  0  0  0  0  0
   -8.6920    3.6840  -11.0670 C   0  0  0  0  0  0  0  0  0  0  0  0
   -8.8550    2.5490  -10.3820 N   0  0  0  0  0  0  0  0  0  0  0  0
  1  2  1  0
  2  3  2  0
  3  4  1  0
  4  5  1  0
  5  6  2  0
  6  7  1  0
  7  8  1  0
  8  9  2  0
  8 10  1  0
 10 11  1  0
 11 12  2  0
 12 13  1  0
 13 14  2  0
 14 15  1  0
 15 16  2  0
 16 17  1  0
  7 18  2  0
 18 19  1  0
 19 20  2  0
  2 20  1  0
  4 19  1  0
 11 16  1  0
M  END
