XX01ZVNS2B-x1664_B_301_XX01ZVNS2B-x1291+B+301+1
     RDKit          3D

 12 13  0  0  0  0  0  0  0  0999 V2000
   -3.6920    5.6050  -19.0700 N   0  0  0  0  0  0  0  0  0  0  0  0
   -4.8170    5.3960  -18.3530 C   0  0  0  0  0  0  0  0  0  0  0  0
   -4.8020    5.6040  -16.9400 C   0  0  0  0  0  0  0  0  0  0  0  0
   -5.9330    5.3930  -16.2320 C   0  0  0  0  0  0  0  0  0  0  0  0
   -7.1100    4.9670  -16.8920 C   0  0  0  0  0  0  0  0  0  0  0  0
   -8.3460    4.7070  -16.2320 C   0  0  0  0  0  0  0  0  0  0  0  0
   -9.4470    4.2900  -16.9190 C   0  0  0  0  0  0  0  0  0  0  0  0
   -9.3780    4.1100  -18.3120 C   0  0  0  0  0  0  0  0  0  0  0  0
   -8.2150    4.3440  -18.9850 C   0  0  0  0  0  0  0  0  0  0  0  0
   -7.0570    4.7770  -18.3000 C   0  0  0  0  0  0  0  0  0  0  0  0
   -5.9000    5.0000  -19.0150 N   0  0  0  0  0  0  0  0  0  0  0  0
   -8.4780    4.9170  -14.5140 Cl  0  0  0  0  0  0  0  0  0  0  0  0
  1  2  1  0
  2  3  2  0
  3  4  1  0
  4  5  2  0
  5  6  1  0
  6  7  2  0
  7  8  1  0
  8  9  2  0
  9 10  1  0
 10 11  2  0
  6 12  1  0
  2 11  1  0
  5 10  1  0
M  END
