XX01ZVNS2B-x0727_B_301_XX01ZVNS2B-x1291+B+301+1
     RDKit          3D

 12 13  0  0  0  0  0  0  0  0999 V2000
   -3.6110    4.9890  -15.3970 C   0  0  0  0  0  0  0  0  0  0  0  0
   -5.0180    5.2000  -15.6680 N   0  0  0  0  0  0  0  0  0  0  0  0
   -5.5570    5.1050  -16.9030 C   0  0  0  0  0  0  0  0  0  0  0  0
   -6.9690    4.8510  -17.0500 C   0  0  0  0  0  0  0  0  0  0  0  0
   -7.4810    4.7640  -18.3740 C   0  0  0  0  0  0  0  0  0  0  0  0
   -6.5900    4.9300  -19.4560 C   0  0  0  0  0  0  0  0  0  0  0  0
   -5.2780    5.1710  -19.2030 C   0  0  0  0  0  0  0  0  0  0  0  0
   -4.7560    5.2590  -17.9690 N   0  0  0  0  0  0  0  0  0  0  0  0
   -7.8770    4.6780  -15.9750 C   0  0  0  0  0  0  0  0  0  0  0  0
   -9.2020    4.4450  -16.2010 C   0  0  0  0  0  0  0  0  0  0  0  0
   -9.6940    4.3680  -17.4930 C   0  0  0  0  0  0  0  0  0  0  0  0
   -8.8620    4.5180  -18.5610 C   0  0  0  0  0  0  0  0  0  0  0  0
  2  1  1  0
  3  2  1  0
  3  8  2  0
  8  7  1  0
  7  6  2  0
  6  5  1  0
  5 12  2  0
 12 11  1  0
 11 10  2  0
 10  9  1  0
  9  4  2  0
  4  3  1  0
  5  4  1  0
M  END
