A71EV2A-x1775_A_201_1_A71EV2A-x0526+A+147+1
     RDKit          3D

 13 13  0  0  0  0  0  0  0  0999 V2000
   12.0570    9.3980   21.5150 O   0  0  0  0  0  0  0  0  0  0  0  0
   11.9960   10.4120   22.1880 C   0  0  0  0  0  0  0  0  0  0  0  0
   13.0380   11.4880   22.0630 C   0  0  0  0  0  0  0  0  0  0  0  0
   13.8550   11.4350   20.7920 C   0  0  0  0  0  0  0  0  0  0  0  0
   10.8620   10.6200   23.1350 C   0  0  0  0  0  0  0  0  0  0  0  0
   10.6230   11.8370   23.7740 C   0  0  0  0  0  0  0  0  0  0  0  0
    9.5190   12.0020   24.5930 C   0  0  0  0  0  0  0  0  0  0  0  0
    9.9800    9.5650   23.3610 C   0  0  0  0  0  0  0  0  0  0  0  0
    8.8850    9.7220   24.1920 C   0  0  0  0  0  0  0  0  0  0  0  0
    8.6450   10.9390   24.7950 C   0  0  0  0  0  0  0  0  0  0  0  0
    7.4910   10.9740   25.5510 O   0  0  0  0  0  0  0  0  0  0  0  0
    7.0220   12.2590   26.0150 C   0  0  0  0  0  0  0  0  0  0  0  0
    5.6900   12.0650   26.5740 C   0  0  0  0  0  0  0  0  0  0  0  0
 13 12  1  0
 12 11  1  0
 11 10  1  0
 10  7  2  0
  7  6  1  0
  6  5  2  0
  5  2  1  0
  2  1  2  0
  3  2  1  0
  4  3  1  0
  8  5  1  0
  9  8  2  0
 10  9  1  0
M  END
