A71EV2A-x0211_A_302_1_A71EV2A-x0211+A+302+1
     RDKit          3D

 14 14  0  0  0  0  0  0  0  0999 V2000
   21.4150   -8.8310   11.4310 F   0  0  0  0  0  0  0  0  0  0  0  0
   20.7830   -7.6790   11.6740 C   0  0  0  0  0  0  0  0  0  0  0  0
   20.6830   -7.6130   12.9910 F   0  0  0  0  0  0  0  0  0  0  0  0
   19.5280   -7.8370   11.2430 O   0  0  0  0  0  0  0  0  0  0  0  0
   19.1750   -7.7030    9.9260 C   0  0  0  0  0  0  0  0  0  0  0  0
   17.8490   -7.3260    9.6830 C   0  0  0  0  0  0  0  0  0  0  0  0
   16.8040   -6.7890   11.0130 S   0  0  0  0  0  0  0  0  0  0  0  0
   17.3680   -5.6050   11.5990 O   0  0  0  0  0  0  0  0  0  0  0  0
   16.5810   -7.9090   11.8800 O   0  0  0  0  0  0  0  0  0  0  0  0
   15.3940   -6.4250   10.3840 N   0  0  0  0  0  0  0  0  0  0  0  0
   20.0040   -7.9910    8.8500 C   0  0  0  0  0  0  0  0  0  0  0  0
   19.5040   -7.9300    7.5560 C   0  0  0  0  0  0  0  0  0  0  0  0
   18.1910   -7.5960    7.3290 C   0  0  0  0  0  0  0  0  0  0  0  0
   17.3480   -7.3020    8.3870 C   0  0  0  0  0  0  0  0  0  0  0  0
 10  7  1  0
  8  7  2  0
  9  7  2  0
  7  6  1  0
  6 14  2  0
 14 13  1  0
 13 12  2  0
 12 11  1  0
 11  5  2  0
  6  5  1  0
  5  4  1  0
  4  2  1  0
  3  2  1  0
  2  1  1  0
M  END
