A71EV2A-x0514_A_250_1_A71EV2A-x0528+A+201+1
     RDKit          3D

 12 13  0  0  0  0  0  0  0  0999 V2000
   24.3020   22.2760   17.0130 N   0  0  0  0  0  0  0  0  0  0  0  0
   25.1600   21.7380   17.8810 C   0  0  0  0  0  0  0  0  0  0  0  0
   26.8820   22.0930   17.7640 S   0  0  0  0  0  0  0  0  0  0  0  0
   24.8020   21.0030   18.9010 N   0  0  0  0  0  0  0  0  0  0  0  0
   25.9080   20.6670   19.6750 C   0  0  0  0  0  0  0  0  0  0  0  0
   27.1320   21.1730   19.2170 C   0  0  0  0  0  0  0  0  0  0  0  0
   28.3150   20.9130   19.8960 C   0  0  0  0  0  0  0  0  0  0  0  0
   28.2780   20.1150   21.0250 C   0  0  0  0  0  0  0  0  0  0  0  0
   25.8780   19.8690   20.8170 C   0  0  0  0  0  0  0  0  0  0  0  0
   27.0730   19.5900   21.4690 C   0  0  0  0  0  0  0  0  0  0  0  0
   27.2320   18.7400   22.5350 O   0  0  0  0  0  0  0  0  0  0  0  0
   26.0600   18.1300   23.0860 C   0  0  0  0  0  0  0  0  0  0  0  0
 12 11  1  0
 11 10  1  0
 10  8  2  0
  8  7  1  0
  7  6  2  0
  6  3  1  0
  3  2  1  0
  2  1  1  0
  4  2  2  0
  5  4  1  0
  6  5  1  0
  9  5  2  0
 10  9  1  0
M  END
