XX01ZVNS2B-x0422_B_301_XX01ZVNS2B-x1291+B+301+1
     RDKit          3D

 11 12  0  0  0  0  0  0  0  0999 V2000
   -2.7750    5.1550  -17.8790 N   0  0  0  0  0  0  0  0  0  0  0  0
   -3.9900    5.0240  -18.4180 C   0  0  0  0  0  0  0  0  0  0  0  0
   -5.1370    5.0380  -17.6680 N   0  0  0  0  0  0  0  0  0  0  0  0
   -6.1470    4.8300  -18.5720 C   0  0  0  0  0  0  0  0  0  0  0  0
   -5.6560    4.7160  -19.7980 N   0  0  0  0  0  0  0  0  0  0  0  0
   -4.2700    4.8360  -19.7070 N   0  0  0  0  0  0  0  0  0  0  0  0
   -7.5540    4.7130  -18.2290 C   0  0  0  0  0  0  0  0  0  0  0  0
   -8.0760    4.8270  -16.6010 S   0  0  0  0  0  0  0  0  0  0  0  0
   -9.6910    4.5400  -17.0400 C   0  0  0  0  0  0  0  0  0  0  0  0
   -9.8400    4.3710  -18.3670 C   0  0  0  0  0  0  0  0  0  0  0  0
   -8.6140    4.4750  -19.0550 C   0  0  0  0  0  0  0  0  0  0  0  0
  2  1  1  0
  2  6  2  0
  6  5  1  0
  5  4  2  0
  4  3  1  0
  3  2  1  0
  7  4  1  0
  7 11  2  0
 11 10  1  0
 10  9  2  0
  9  8  1  0
  8  7  1  0
M  END
