XX01ZVNS2B-x0773_B_401_XX01ZVNS2B-x0773+B+401+1
     RDKit          3D

 14 15  0  0  0  0  0  0  0  0999 V2000
  -23.1650    4.5740    2.7300 O   0  0  0  0  0  0  0  0  0  0  0  0
  -23.3700    4.6740    1.3130 S   0  0  0  0  0  0  0  0  0  0  0  0
  -24.0770    3.6070    0.6530 O   0  0  0  0  0  0  0  0  0  0  0  0
  -24.1980    6.1760    0.9730 C   0  0  0  0  0  0  0  0  0  0  0  0
  -21.7790    4.8120    0.5420 C   0  0  0  0  0  0  0  0  0  0  0  0
  -21.2460    6.0850    0.2010 C   0  0  0  0  0  0  0  0  0  0  0  0
  -22.0000    7.2060    0.3990 N   0  0  0  0  0  0  0  0  0  0  0  0
  -21.4510    8.3650    0.0940 C   0  0  0  0  0  0  0  0  0  0  0  0
  -20.1690    8.5150   -0.4000 C   0  0  0  0  0  0  0  0  0  0  0  0
  -19.4110    7.4050   -0.6130 C   0  0  0  0  0  0  0  0  0  0  0  0
  -19.9290    6.1320   -0.3160 C   0  0  0  0  0  0  0  0  0  0  0  0
  -19.1980    4.9300   -0.4650 C   0  0  0  0  0  0  0  0  0  0  0  0
  -19.7520    3.7330   -0.1180 C   0  0  0  0  0  0  0  0  0  0  0  0
  -21.0490    3.6690    0.3640 C   0  0  0  0  0  0  0  0  0  0  0  0
  4  2  1  0
  3  2  2  0
  2  1  2  0
  5  2  1  0
  5 14  2  0
 14 13  1  0
 13 12  2  0
 12 11  1  0
 11 10  2  0
 10  9  1  0
  9  8  2  0
  8  7  1  0
  7  6  2  0
  6  5  1  0
 11  6  1  0
M  END
