XX01ZVNS2B-x1265_B_301_XX01ZVNS2B-x1291+B+301+1
     RDKit          3D

 23 25  0  0  0  0  0  0  0  0999 V2000
   -1.9500    6.2700  -14.6650 C   0  0  0  0  0  0  0  0  0  0  0  0
   -3.1530    5.5340  -14.9490 O   0  0  0  0  0  0  0  0  0  0  0  0
   -4.0260    6.0410  -15.8530 C   0  0  0  0  0  0  0  0  0  0  0  0
   -5.2220    5.3580  -16.0370 C   0  0  0  0  0  0  0  0  0  0  0  0
   -6.1570    5.8550  -16.9440 C   0  0  0  0  0  0  0  0  0  0  0  0
   -7.4580    5.1640  -17.1950 C   0  0  0  0  0  0  0  0  0  0  0  0
   -7.7800    4.8710  -18.5220 C   0  0  0  0  0  0  0  0  0  0  0  0
   -8.9610    4.2390  -18.8620 C   0  0  0  0  0  0  0  0  0  0  0  0
   -9.8590    3.8910  -17.8840 C   0  0  0  0  0  0  0  0  0  0  0  0
   -9.5790    4.1720  -16.5630 C   0  0  0  0  0  0  0  0  0  0  0  0
   -8.3880    4.8080  -16.1940 C   0  0  0  0  0  0  0  0  0  0  0  0
   -8.2120    5.0500  -14.7190 C   0  0  0  0  0  0  0  0  0  0  0  0
   -7.7650    6.1020  -14.2920 O   0  0  0  0  0  0  0  0  0  0  0  0
   -8.5760    4.0420  -13.8870 N   0  0  0  0  0  0  0  0  0  0  0  0
   -8.6120    4.1460  -12.4860 C   0  0  0  0  0  0  0  0  0  0  0  0
   -8.9830    3.1500  -11.5830 C   0  0  0  0  0  0  0  0  0  0  0  0
   -8.8950    3.5620  -10.3280 N   0  0  0  0  0  0  0  0  0  0  0  0
   -8.4520    4.8550  -10.4130 N   0  0  0  0  0  0  0  0  0  0  0  0
   -8.2480    5.6340   -9.1950 C   0  0  0  0  0  0  0  0  0  0  0  0
   -8.2820    5.2460  -11.6950 C   0  0  0  0  0  0  0  0  0  0  0  0
   -5.8260    7.0010  -17.6400 C   0  0  0  0  0  0  0  0  0  0  0  0
   -4.6140    7.6190  -17.3990 C   0  0  0  0  0  0  0  0  0  0  0  0
   -3.7140    7.1410  -16.5130 N   0  0  0  0  0  0  0  0  0  0  0  0
  1  2  1  0
  2  3  1  0
  3  4  2  0
  4  5  1  0
  5  6  1  0
  6  7  2  0
  7  8  1  0
  8  9  2  0
  9 10  1  0
 10 11  2  0
 11 12  1  0
 12 13  2  0
 12 14  1  0
 14 15  1  0
 15 16  1  0
 16 17  2  0
 17 18  1  0
 18 19  1  0
 18 20  1  0
  5 21  2  0
 21 22  1  0
 22 23  2  0
  3 23  1  0
  6 11  1  0
 15 20  2  0
M  END
