XX01ZVNS2B-x1271_B_301_XX01ZVNS2B-x1291+B+301+1
     RDKit          3D

 20 22  0  0  0  0  0  0  0  0999 V2000
   -8.4280    6.7870  -11.3910 C   0  0  0  0  0  0  0  0  0  0  0  0
   -8.4770    5.3830  -10.8430 C   0  0  0  0  0  0  0  0  0  0  0  0
   -8.5510    5.1740   -9.4740 C   0  0  0  0  0  0  0  0  0  0  0  0
   -8.6000    3.9540   -8.9170 N   0  0  0  0  0  0  0  0  0  0  0  0
   -8.5770    2.9040   -9.7420 C   0  0  0  0  0  0  0  0  0  0  0  0
   -8.4970    3.0070  -11.1070 C   0  0  0  0  0  0  0  0  0  0  0  0
   -8.4500    4.2680  -11.6820 C   0  0  0  0  0  0  0  0  0  0  0  0
   -8.3680    4.4410  -13.0860 N   0  0  0  0  0  0  0  0  0  0  0  0
   -7.3100    4.9590  -13.7800 C   0  0  0  0  0  0  0  0  0  0  0  0
   -6.3240    5.4280  -13.2220 O   0  0  0  0  0  0  0  0  0  0  0  0
   -7.4160    4.9160  -15.2470 C   0  0  0  0  0  0  0  0  0  0  0  0
   -8.5060    4.4390  -16.0230 C   0  0  0  0  0  0  0  0  0  0  0  0
   -8.1970    4.5740  -17.3570 C   0  0  0  0  0  0  0  0  0  0  0  0
   -8.9350    4.2410  -18.5810 C   0  0  0  0  0  0  0  0  0  0  0  0
   -9.4500    2.8470  -18.7620 C   0  0  0  0  0  0  0  0  0  0  0  0
  -10.4020    3.9480  -18.5260 C   0  0  0  0  0  0  0  0  0  0  0  0
   -6.9330    5.1250  -17.4550 N   0  0  0  0  0  0  0  0  0  0  0  0
   -6.2210    5.4250  -18.6970 C   0  0  0  0  0  0  0  0  0  0  0  0
   -6.4360    5.3340  -16.1450 C   0  0  0  0  0  0  0  0  0  0  0  0
   -5.0820    5.9180  -15.9290 C   0  0  0  0  0  0  0  0  0  0  0  0
  1  2  1  0
  2  3  2  0
  3  4  1  0
  4  5  2  0
  5  6  1  0
  6  7  2  0
  7  8  1  0
  8  9  1  0
  9 10  2  0
  9 11  1  0
 11 12  1  0
 12 13  2  0
 13 14  1  0
 14 15  1  0
 15 16  1  0
 13 17  1  0
 17 18  1  0
 17 19  1  0
 19 20  1  0
  2  7  1  0
 11 19  2  0
 14 16  1  0
M  END
