A71EV2A-x0152_A_201_1_A71EV2A-x0395+A+148+1
     RDKit          3D

 17 18  0  0  0  0  0  0  0  0999 V2000
   18.2130   -5.0170   23.1160 O   0  0  0  0  0  0  0  0  0  0  0  0
   17.4100   -4.4120   22.4510 C   0  0  0  0  0  0  0  0  0  0  0  0
   16.9220   -4.9260   21.3510 N   0  0  0  0  0  0  0  0  0  0  0  0
   17.2720   -4.4180   20.0430 C   0  0  0  0  0  0  0  0  0  0  0  0
   18.2570   -3.2720   20.2650 C   0  0  0  0  0  0  0  0  0  0  0  0
   17.2630   -2.9230   22.5860 C   0  0  0  0  0  0  0  0  0  0  0  0
   17.7830   -2.3670   21.3340 N   0  0  0  0  0  0  0  0  0  0  0  0
   17.8050   -1.0230   21.3170 C   0  0  0  0  0  0  0  0  0  0  0  0
   17.2270   -0.3560   20.4760 O   0  0  0  0  0  0  0  0  0  0  0  0
   18.4990   -0.4070   22.5050 C   0  0  0  0  0  0  0  0  0  0  0  0
   18.0600    0.9300   22.5880 O   0  0  0  0  0  0  0  0  0  0  0  0
   17.7110    1.5440   23.7710 C   0  0  0  0  0  0  0  0  0  0  0  0
   17.0870    2.7600   23.9840 C   0  0  0  0  0  0  0  0  0  0  0  0
   17.4630    3.4480   25.1140 C   0  0  0  0  0  0  0  0  0  0  0  0
   18.4320    2.9290   25.9970 C   0  0  0  0  0  0  0  0  0  0  0  0
   18.9710    1.7080   25.7860 C   0  0  0  0  0  0  0  0  0  0  0  0
   18.5480    0.9820   24.7140 C   0  0  0  0  0  0  0  0  0  0  0  0
  9  8  2  0
 10  8  1  0
 11 10  1  0
 12 11  1  0
 12 17  2  0
 17 16  1  0
 16 15  2  0
 15 14  1  0
 14 13  2  0
 13 12  1  0
  8  7  1  0
  7  5  1  0
  5  4  1  0
  4  3  1  0
  3  2  1  0
  2  1  2  0
  6  2  1  0
  7  6  1  0
M  END
