Zx0051a
  PyMOL3.0          3D                             0

 12 13  0  0  0  0  0  0  0  0999 V2000
  -10.3870    4.1190  -18.6950 N   0  0  0  0  0  0  0  0  0  0  0  0
   -2.9070    4.9900  -19.8280 C   0  0  0  0  0  0  0  0  0  0  0  0
   -3.2920    5.3970  -18.5120 O   0  0  0  0  0  0  0  0  0  0  0  0
   -4.6190    5.3220  -18.1700 C   0  0  0  0  0  0  0  0  0  0  0  0
   -8.0990    4.3830  -19.1080 N   0  0  0  0  0  0  0  0  0  0  0  0
   -4.8440    5.7420  -16.8670 C   0  0  0  0  0  0  0  0  0  0  0  0
   -6.1270    5.7430  -16.3500 C   0  0  0  0  0  0  0  0  0  0  0  0
   -7.1790    5.3010  -17.1430 C   0  0  0  0  0  0  0  0  0  0  0  0
   -9.1560    4.4970  -18.3440 C   0  0  0  0  0  0  0  0  0  0  0  0
   -6.9580    4.8470  -18.4480 C   0  0  0  0  0  0  0  0  0  0  0  0
   -5.6660    4.8800  -18.9760 C   0  0  0  0  0  0  0  0  0  0  0  0
   -8.8720    5.1770  -16.7490 S   0  0  0  0  0  0  0  0  0  0  0  0
  1  9  1  0  0  0  0
  2  3  1  0  0  0  0
  3  4  1  0  0  0  0
  5 10  4  0  0  0  0
  4  6  4  0  0  0  0
  6  7  4  0  0  0  0
  7  8  4  0  0  0  0
  5  9  4  0  0  0  0
  9 12  4  0  0  0  0
  8 10  4  0  0  0  0
 10 11  4  0  0  0  0
  4 11  4  0  0  0  0
  8 12  4  0  0  0  0
M  END
>  <pdb_header>
HEADER    ----                                    18-MAY-23                     
TITLE     ---                                                                   
EXPDTA    X-RAY DIFFRACTION                                                     
REMARK --------------------- added by autoBUSTER -------------------------------
REMARK run at   = Mon Jun 12 14:49:40 BST 2023                                  
REMARK     in   = /dls/labxchem/data/lb32627/lb32627-65/processing/analysis/mode
REMARK     user = xau79897                                                      
REMARK     cmd  = \                                                             
REMARK            /dls_sw/apps/GPhL/BUSTER/20230217/autoBUSTER/bin/linux64/refin
REMARK            -p \                                                          
REMARK            /dls/labxchem/data/lb32627/lb32627-65/processing/analysis/mode
REMARK            -m \                                                          
REMARK            /dls/labxchem/data/lb32627/lb32627-65/processing/analysis/mode
REMARK            -l \                                                          
REMARK            /dls/labxchem/data/lb32627/lb32627-65/processing/analysis/mode
REMARK            -autoncs -M TLSbasic -B user -Gelly gelly.dat \               
REMARK            StopOnGellySanityCheckError=no -d Refine_10                   
REMARK Files used:                                                              
REMARK   PDB              = Refine_10/pdbchk.pdb                                
REMARK   MTZ              = /dls/labxchem/data/lb32627/lb32627-65/processing/ana
REMARK   Gelly commands       = /dls/labxchem/data/lb32627/lb32627-65/processing
REMARK output written to subdirectory = Refine_10                               
REMARK best refinement for F,SIGF with R/Rfree 0.2464/0.3004                    
REMARK header records are copied from input PDB file (apart from REMARK 3!)     
REMARK --------------------- added by autoBUSTER -------------------------------
REMARK --------------------- added by autoBUSTER -------------------------------
REMARK run at   = Thu Jun  1 13:41:11 BST 2023                                  
REMARK     in   = /dls/labxchem/data/lb32627/lb32627-65/processing/analysis/mode
REMARK     user = xau79897                                                      
REMARK     cmd  = \                                                             
REMARK            /dls_sw/apps/GPhL/BUSTER/20230217/autoBUSTER/bin/linux64/refin
REMARK            -p \                                                          
REMARK            /dls/labxchem/data/lb32627/lb32627-65/processing/analysis/mode
REMARK            -m \                                                          
REMARK            /dls/labxchem/data/lb32627/lb32627-65/processing/analysis/mode
REMARK            -l \                                                          
REMARK            /dls/labxchem/data/lb32627/lb32627-65/processing/analysis/mode
REMARK            -autoncs -M TLSbasic -d Refine_9                              
REMARK Files used:                                                              
REMARK   PDB              = Refine_9/pdbchk.pdb                                 
REMARK   MTZ              = /dls/labxchem/data/lb32627/lb32627-65/processing/ana
REMARK output written to subdirectory = Refine_9                                
REMARK best refinement for F,SIGF with R/Rfree 0.2462/0.3002                    
REMARK header records are copied from input PDB file (apart from REMARK 3!)     
REMARK --------------------- added by autoBUSTER -------------------------------
REMARK --------------------- added by autoBUSTER -------------------------------
REMARK run at   = Fri May 26 21:59:01 BST 2023                                  
REMARK     in   = /dls/labxchem/data/lb32627/lb32627-65/processing/analysis/mode
REMARK     user = xau79897                                                      
REMARK     cmd  = \                                                             
REMARK            /dls_sw/apps/GPhL/BUSTER/20230217/autoBUSTER/bin/linux64/refin
REMARK            -p \                                                          
REMARK            /dls/labxchem/data/lb32627/lb32627-65/processing/analysis/mode
REMARK            -m \                                                          
REMARK            /dls/labxchem/data/lb32627/lb32627-65/processing/analysis/mode
REMARK            -l \                                                          
REMARK            /dls/labxchem/data/lb32627/lb32627-65/processing/analysis/mode
REMARK            -autoncs -M TLSbasic -d Refine_8                              
REMARK Files used:                                                              
REMARK   PDB              = Refine_8/pdbchk.pdb                                 
REMARK   MTZ              = /dls/labxchem/data/lb32627/lb32627-65/processing/ana
REMARK output written to subdirectory = Refine_8                                
REMARK best refinement for F,SIGF with R/Rfree 0.2466/0.3013                    
REMARK header records are copied from input PDB file (apart from REMARK 3!)     
REMARK --------------------- added by autoBUSTER -------------------------------
REMARK --------------------- added by autoBUSTER -------------------------------
REMARK run at   = Wed May 24 19:06:37 BST 2023                                  
REMARK     in   = /dls/labxchem/data/lb32627/lb32627-65/processing/analysis/mode
REMARK     user = xau79897                                                      
REMARK     cmd  = \                                                             
REMARK            /dls_sw/apps/GPhL/BUSTER/20230217/autoBUSTER/bin/linux64/refin
REMARK            -p \                                                          
REMARK            /dls/labxchem/data/lb32627/lb32627-65/processing/analysis/mode
REMARK            -m \                                                          
REMARK            /dls/labxchem/data/lb32627/lb32627-65/processing/analysis/mode
REMARK            -l \                                                          
REMARK            /dls/labxchem/data/lb32627/lb32627-65/processing/analysis/mode
REMARK            -autoncs -M TLSbasic -WAT -B user -Gelly gelly.dat \          
REMARK            StopOnGellySanityCheckError=no -d Refine_7                    
REMARK Files used:                                                              
REMARK   PDB              = Refine_7/pdbchk.pdb                                 
REMARK   MTZ              = /dls/labxchem/data/lb32627/lb32627-65/processing/ana
REMARK   Gelly commands       = /dls/labxchem/data/lb32627/lb32627-65/processing
REMARK output written to subdirectory = Refine_7                                
REMARK best refinement for F,SIGF with R/Rfree 0.2478/0.3051                    
REMARK header records are copied from input PDB file (apart from REMARK 3!)     
REMARK --------------------- added by autoBUSTER -------------------------------
REMARK --------------------- added by autoBUSTER -------------------------------
REMARK run at   = Tue May 23 20:17:16 BST 2023                                  
REMARK     in   = /dls/labxchem/data/lb32627/lb32627-65/processing/analysis/mode
REMARK     user = xau79897                                                      
REMARK     cmd  = \                                                             
REMARK            /dls_sw/apps/GPhL/BUSTER/20230217/autoBUSTER/bin/linux64/refin
REMARK            -p \                                                          
REMARK            /dls/labxchem/data/lb32627/lb32627-65/processing/analysis/mode
REMARK            -m \                                                          
REMARK            /dls/labxchem/data/lb32627/lb32627-65/processing/analysis/mode
REMARK            -l \                                                          
REMARK            /dls/labxchem/data/lb32627/lb32627-65/processing/analysis/mode
REMARK            -autoncs -M TLSbasic -WAT -B user -Gelly gelly.dat \          
REMARK            StopOnGellySanityCheckError=no -d Refine_6                    
REMARK Files used:                                                              
REMARK   PDB              = Refine_6/pdbchk.pdb                                 
REMARK   MTZ              = /dls/labxchem/data/lb32627/lb32627-65/processing/ana
REMARK   Gelly commands       = /dls/labxchem/data/lb32627/lb32627-65/processing
REMARK output written to subdirectory = Refine_6                                
REMARK best refinement for F,SIGF with R/Rfree 0.2479/0.3009                    
REMARK header records are copied from input PDB file (apart from REMARK 3!)     
REMARK --------------------- added by autoBUSTER -------------------------------
REMARK --------------------- added by autoBUSTER -------------------------------
REMARK run at   = Tue May 23 16:59:38 BST 2023                                  
REMARK     in   = /dls/labxchem/data/lb32627/lb32627-65/processing/analysis/mode
REMARK     user = xau79897                                                      
REMARK     cmd  = \                                                             
REMARK            /dls_sw/apps/GPhL/BUSTER/20230217/autoBUSTER/bin/linux64/refin
REMARK            -p \                                                          
REMARK            /dls/labxchem/data/lb32627/lb32627-65/processing/analysis/mode
REMARK            -m \                                                          
REMARK            /dls/labxchem/data/lb32627/lb32627-65/processing/analysis/mode
REMARK            -l \                                                          
REMARK            /dls/labxchem/data/lb32627/lb32627-65/processing/analysis/mode
REMARK            -autoncs -M TLSbasic -d Refine_5                              
REMARK Files used:                                                              
REMARK   PDB              = Refine_5/pdbchk.pdb                                 
REMARK   MTZ              = /dls/labxchem/data/lb32627/lb32627-65/processing/ana
REMARK output written to subdirectory = Refine_5                                
REMARK best refinement for F,SIGF with R/Rfree 0.2497/0.3044                    
REMARK header records are copied from input PDB file (apart from REMARK 3!)     
REMARK --------------------- added by autoBUSTER -------------------------------
REMARK --------------------- added by autoBUSTER -------------------------------
REMARK run at   = Mon May 22 14:05:35 BST 2023                                  
REMARK     in   = /dls/labxchem/data/lb32627/lb32627-65/processing/analysis/mode
REMARK     user = xau79897                                                      
REMARK     cmd  = \                                                             
REMARK            /dls_sw/apps/GPhL/BUSTER/20230217/autoBUSTER/bin/linux64/refin
REMARK            -p \                                                          
REMARK            /dls/labxchem/data/lb32627/lb32627-65/processing/analysis/mode
REMARK            -m \                                                          
REMARK            /dls/labxchem/data/lb32627/lb32627-65/processing/analysis/mode
REMARK            -l \                                                          
REMARK            /dls/labxchem/data/lb32627/lb32627-65/processing/analysis/mode
REMARK            -autoncs -M TLSbasic -WAT -B user -Gelly gelly.dat \          
REMARK            StopOnGellySanityCheckError=no -d Refine_4                    
REMARK Files used:                                                              
REMARK   PDB              = Refine_4/pdbchk.pdb                                 
REMARK   MTZ              = /dls/labxchem/data/lb32627/lb32627-65/processing/ana
REMARK   Gelly commands       = /dls/labxchem/data/lb32627/lb32627-65/processing
REMARK output written to subdirectory = Refine_4                                
REMARK best refinement for F,SIGF with R/Rfree 0.2501/0.3086                    
REMARK header records are copied from input PDB file (apart from REMARK 3!)     
REMARK --------------------- added by autoBUSTER -------------------------------
REMARK   2                                                                      
REMARK   2 RESOLUTION.    1.68 ANGSTROMS.                                       
REMARK   3                                                                      
REMARK   3 REFINEMENT.                                                          
REMARK   3   PROGRAM     : BUSTER 2.10.4 (17-FEB-2023)                          
REMARK   3   AUTHORS     : BRICOGNE,BLANC,BRANDL,FLENSBURG,KELLER,              
REMARK   3               : PACIOREK,ROVERSI,SHARFF,SMART,VONRHEIN,WOMACK;       
REMARK   3               : MATTHEWS,TEN EYCK,TRONRUD                            
REMARK   3                                                                      
REMARK   3  DATA USED IN REFINEMENT.                                            
REMARK   3   RESOLUTION RANGE HIGH (ANGSTROMS) : 1.684                          
REMARK   3   RESOLUTION RANGE LOW  (ANGSTROMS) : 21.52                          
REMARK   3   DATA CUTOFF            (SIGMA(F)) : 0.000                          
REMARK   3   COMPLETENESS FOR RANGE        (%) : 72.3                           
REMARK   3   NUMBER OF REFLECTIONS             : 17001                          
REMARK   3                                                                      
REMARK   3  FIT TO DATA USED IN REFINEMENT.                                     
REMARK   3   CROSS-VALIDATION METHOD          : THROUGHOUT                      
REMARK   3   FREE R VALUE TEST SET SELECTION  : RANDOM                          
REMARK   3   R VALUE     (WORKING + TEST SET) : 0.2491                          
REMARK   3   R VALUE            (WORKING SET) : 0.2465                          
REMARK   3   FREE R VALUE                     : 0.3001                          
REMARK   3   FREE R VALUE TEST SET SIZE   (%) : 4.890                           
REMARK   3   FREE R VALUE TEST SET COUNT      : 831                             
REMARK   3   ESTIMATED ERROR OF FREE R VALUE  : NULL                            
REMARK   3                                                                      
REMARK   3  FIT IN THE HIGHEST RESOLUTION BIN.                                  
REMARK   3   TOTAL NUMBER OF BINS USED           : 42                           
REMARK   3   BIN RESOLUTION RANGE HIGH       (A) : 1.68                         
REMARK   3   BIN RESOLUTION RANGE LOW        (A) : 1.89                         
REMARK   3   BIN COMPLETENESS (WORKING+TEST) (%) : 6.34                         
REMARK   3   REFLECTIONS IN BIN   (WORKING+TEST) : 415                          
REMARK   3   BIN R VALUE          (WORKING+TEST) : 0.6548                       
REMARK   3   REFLECTIONS IN BIN    (WORKING SET) : 387                          
REMARK   3   BIN R VALUE           (WORKING SET) : 0.6490                       
REMARK   3   BIN FREE R VALUE                    : 0.7269                       
REMARK   3   BIN FREE R VALUE TEST SET SIZE  (%) : 6.75                         
REMARK   3   BIN FREE R VALUE TEST SET COUNT     : 28                           
REMARK   3   ESTIMATED ERROR OF BIN FREE R VALUE : NULL                         
REMARK   3                                                                      
REMARK   3  NUMBER OF NON-HYDROGEN ATOMS USED IN REFINEMENT.                    
REMARK   3   PROTEIN ATOMS            : 1476                                    
REMARK   3   NUCLEIC ACID ATOMS       : 0                                       
REMARK   3   HETEROGEN ATOMS          : 16                                      
REMARK   3   SOLVENT ATOMS            : 104                                     
REMARK   3                                                                      
REMARK   3  B VALUES.                                                           
REMARK   3   FROM WILSON PLOT           (A**2) : 38.25                          
REMARK   3   MEAN B VALUE      (OVERALL, A**2) : 56.76                          
REMARK   3   OVERALL ANISOTROPIC B VALUE.                                       
REMARK   3    B11 (A**2) : -4.69930                                             
REMARK   3    B22 (A**2) : -4.69930                                             
REMARK   3    B33 (A**2) : 9.39860                                              
REMARK   3    B12 (A**2) : 0.00000                                              
REMARK   3    B13 (A**2) : 0.00000                                              
REMARK   3    B23 (A**2) : 0.00000                                              
REMARK   3                                                                      
REMARK   3  ESTIMATED COORDINATE ERROR.                                         
REMARK   3   ESD FROM LUZZATI PLOT                    (A) : 0.46                
REMARK   3   DPI (BLOW EQ-10) BASED ON R VALUE        (A) : 0.206               
REMARK   3   DPI (BLOW EQ-9) BASED ON FREE R VALUE    (A) : 0.186               
REMARK   3   DPI (CRUICKSHANK) BASED ON R VALUE       (A) : 0.190               
REMARK   3   DPI (CRUICKSHANK) BASED ON FREE R VALUE  (A) : 0.179               
REMARK   3                                                                      
REMARK   3   REFERENCES: BLOW, D. (2002) ACTA CRYST D58, 792-797                
REMARK   3               CRUICKSHANK, D.W.J. (1999) ACTA CRYST D55, 583-601     
REMARK   3                                                                      
REMARK   3  CORRELATION COEFFICIENTS.                                           
REMARK   3   CORRELATION COEFFICIENT FO-FC      : 0.941                         
REMARK   3   CORRELATION COEFFICIENT FO-FC FREE : 0.918                         
REMARK   3                                                                      
REMARK   3  X-RAY WEIGHT : 8.96                                                 
REMARK   3                                                                      
REMARK   3  GEOMETRY FUNCTION.                                                  
REMARK   3   RESTRAINT LIBRARIES.                                               
REMARK   3    NUMBER OF LIBRARIES USED :   9                                    
REMARK   3    LIBRARY  1 : protgeo_eh99.dat (V1.6.4.20) 20220523  STANDARD      
REMARK   3                 AMINO ACID DICTIONARY. BONDS AND ANGLES FROM         
REMARK   3                 ENGH AND HUBER EH99. OTHER VALUES BASED ON           
REMARK   3                 PREVIOUS TNT OR TAKEN FROM CCP4. INCLUDES            
REMARK   3                 HYDROGEN ATOMS.                                      
REMARK   3    LIBRARY  2 : exoticaa.dat (V1.3.4.16) 20220523  COLLECTION        
REMARK   3                 OF NON-STANDARD AMINO ACIDS, MAINLY EH91             
REMARK   3                 WITHOUT IDEAL DISTANCE INFO                          
REMARK   3    LIBRARY  3 : nuclgeo.dat (V1.13.4.9) 20221011                     
REMARK   3    LIBRARY  4 : bcorrel.dat (V1.15.10.2) 20190616                    
REMARK   3    LIBRARY  5 : contact.dat (V1.15.12.10) 20191121                   
REMARK   3    LIBRARY  6 : idealdist_contact.dat (V1.3.4.13) 20220125           
REMARK   3                 IDEAL-DISTANCE CONTACT TERM DATA AS USED IN          
REMARK   3                 PROLSQ. VALUES USED HERE ARE BASED ON DATA           
REMARK   3                 HARVESTING OF PDB AS OF 20190109.                    
REMARK   3    LIBRARY  7 : restraints for LIG (unknown) from cif                
REMARK   3                 dictionary Z1201620232.cif; generated by GRADE       
REMARK   3                 1.2.21 (Feb 03 2022) from SMILES                     
REMARK   3                 COc1ccc2sc(N)nc2c1 using MOGUL 1.8.5(274361),        
REMARK   3                 CSD as541be, with quantum mechanics RM1              
REMARK   3    LIBRARY  8 : restraints for DMS (DIMETHYL SULFOXIDE) from         
REMARK   3                 cif dictionary DMS.cif; generated by grade2          
REMARK   3                 version 1.1.0a7 from                                 
REMARK   3                 PDB_chemical_components_definition_file              
REMARK   3                 ftp://ftp.ebi.ac.uk/pub/databases/msd/pdbechem_v     
REMARK   3                 2/D/DMS/DMS.cif using RDKit 2021.03.4                
REMARK   3                 ((DatabaseID PDB-DMS))                               
REMARK   3    LIBRARY  9 : assume.dat (V1.9.4.3) 20221011                       
REMARK   3                                                                      
REMARK   3   NUMBER OF GEOMETRIC FUNCTION TERMS DEFINED : 15                    
REMARK   3   TERM                          COUNT    WEIGHT   FUNCTION.          
REMARK   3    BOND LENGTHS              :   1664 ;   2.00 ;  HARMONIC           
REMARK   3    BOND ANGLES               :   2287 ;   2.00 ;  HARMONIC           
REMARK   3    TORSION ANGLES            :    563 ;   2.00 ;  SINUSOIDAL         
REMARK   3    TRIGONAL CARBON PLANES    :   NULL ;   NULL ;  NULL               
REMARK   3    GENERAL PLANES            :    305 ;   5.00 ;  HARMONIC           
REMARK   3    ISOTROPIC THERMAL FACTORS :   1651 ;  10.00 ;  HARMONIC           
REMARK   3    BAD NON-BONDED CONTACTS   :   NULL ;   NULL ;  NULL               
REMARK   3    IMPROPER TORSIONS         :   NULL ;   NULL ;  NULL               
REMARK   3    PSEUDOROTATION ANGLES     :   NULL ;   NULL ;  NULL               
REMARK   3    CHIRAL IMPROPER TORSION   :    210 ;   5.00 ;  SEMIHARMONIC       
REMARK   3    SUM OF OCCUPANCIES        :   NULL ;   NULL ;  NULL               
REMARK   3    UTILITY DISTANCES         :   NULL ;   NULL ;  NULL               
REMARK   3    UTILITY ANGLES            :   NULL ;   NULL ;  NULL               
REMARK   3    UTILITY TORSION           :   NULL ;   NULL ;  NULL               
REMARK   3    IDEAL-DIST CONTACT TERM   :   1258 ;   4.00 ;  SEMIHARMONIC       
REMARK   3                                                                      
REMARK   3   RMS DEVIATIONS FROM IDEAL VALUES.                                  
REMARK   3   BOND LENGTHS                       (A) : 0.009                     
REMARK   3   BOND ANGLES                  (DEGREES) : 1.01                      
REMARK   3   PEPTIDE OMEGA TORSION ANGLES (DEGREES) : 3.33                      
REMARK   3   OTHER TORSION ANGLES         (DEGREES) : 17.07                     
REMARK   3                                                                      
REMARK   3   SIMILARITY.                                                        
REMARK   3    NCS.                                                              
REMARK   3     NCS METHOD: NONE                                                 
REMARK   3    TARGET RESTRAINTS.                                                
REMARK   3     TARGET REPRESENTATION : NONE                                     
REMARK   3     TARGET STRUCTURE : NULL                                          
REMARK   3                                                                      
REMARK   3  TLS DETAILS.                                                        
REMARK   3   NUMBER OF TLS GROUPS  :            2                               
REMARK   3                                                                      
REMARK   3   TLS GROUP :            1                                           
REMARK   3    SET : { G|* }                                                     
REMARK   3    ORIGIN FOR THE GROUP (A):  -14.2673   -1.7361  -19.8145           
REMARK   3    T TENSOR                                                          
REMARK   3     T11:    0.0040 T22:   -0.0365                                    
REMARK   3     T33:   -0.3508 T12:    0.0558                                    
REMARK   3     T13:    0.1317 T23:    0.0957                                    
REMARK   3    L TENSOR                                                          
REMARK   3     L11:    3.2544 L22:    3.5045                                    
REMARK   3     L33:    4.6360 L12:   -1.4088                                    
REMARK   3     L13:   -0.0421 L23:    1.5895                                    
REMARK   3    S TENSOR                                                          
REMARK   3     S11:    0.2946 S12:    0.3199 S13:    0.1338                     
REMARK   3     S21:   -0.4212 S22:   -0.2010 S23:   -0.1736                     
REMARK   3     S31:   -0.1841 S32:    0.4166 S33:   -0.0935                     
REMARK   3                                                                      
REMARK   3   TLS GROUP :            2                                           
REMARK   3    SET : { H|* }                                                     
REMARK   3    ORIGIN FOR THE GROUP (A):  -18.2101    0.8845  -15.6265           
REMARK   3    T TENSOR                                                          
REMARK   3     T11:    0.1425 T22:    0.0464                                    
REMARK   3     T33:   -0.1466 T12:    0.1059                                    
REMARK   3     T13:    0.0405 T23:    0.0380                                    
REMARK   3    L TENSOR                                                          
REMARK   3     L11:    0.4448 L22:    1.0320                                    
REMARK   3     L33:    2.5462 L12:   -0.6027                                    
REMARK   3     L13:   -0.0911 L23:   -0.0537                                    
REMARK   3    S TENSOR                                                          
REMARK   3     S11:    0.1590 S12:    0.0222 S13:    0.1099                     
REMARK   3     S21:   -0.1696 S22:   -0.1257 S23:    0.0925                     
REMARK   3     S31:    0.0077 S32:    0.1752 S33:   -0.0334                     
REMARK   3                                                                      
REMARK   3  REFINEMENT NOTES.                                                   
REMARK   3   NUMBER OF REFINEMENT NOTES :   1                                   
REMARK   3   NOTE   1 : IDEAL-DIST CONTACT TERM CONTACT SETUP. ALL ATOMS        
REMARK   3               HAVE CCP4 ATOM TYPE FROM LIBRARY                       
REMARK   3                                                                      
REMARK   3  OTHER REFINEMENT REMARKS: NULL                                      
REMARK   3                                                                      
REMARK 290                                                                      
REMARK 290 CRYSTALLOGRAPHIC SYMMETRY                                            
REMARK 290 SYMMETRY OPERATORS FOR SPACE GROUP: P 43 2 2                         
REMARK 290                                                                      
REMARK 290      SYMOP   SYMMETRY                                                
REMARK 290     NNNMMM   OPERATOR                                                
REMARK 290       1555   X,Y,Z                                                   
REMARK 290       2555   -X,-Y,1/2+Z                                             
REMARK 290       3555   -Y,X,3/4+Z                                              
REMARK 290       4555   Y,-X,1/4+Z                                              
REMARK 290       5555   -X,Y,-Z                                                 
REMARK 290       6555   X,-Y,1/2-Z                                              
REMARK 290       7555   Y,X,1/4-Z                                               
REMARK 290       8555   -Y,-X,3/4-Z                                             
REMARK 290                                                                      
REMARK 290     WHERE NNN -> OPERATOR NUMBER                                     
REMARK 290           MMM -> TRANSLATION VECTOR                                  
REMARK 290                                                                      
REMARK 290 CRYSTALLOGRAPHIC SYMMETRY TRANSFORMATIONS                            
REMARK 290 THE FOLLOWING TRANSFORMATIONS OPERATE ON THE ATOM/HETATM             
REMARK 290 RECORDS IN THIS ENTRY TO PRODUCE CRYSTALLOGRAPHICALLY                
REMARK 290 RELATED MOLECULES.                                                   
REMARK 290   SMTRY1   1  1.000000  0.000000  0.000000        0.00000            
REMARK 290   SMTRY2   1  0.000000  1.000000  0.000000        0.00000            
REMARK 290   SMTRY3   1  0.000000  0.000000  1.000000        0.00000            
REMARK 290   SMTRY1   2 -1.000000  0.000000  0.000000        0.00000            
REMARK 290   SMTRY2   2  0.000000 -1.000000  0.000000        0.00000            
REMARK 290   SMTRY3   2  0.000000  0.000000  1.000000      108.44050            
REMARK 290   SMTRY1   3  0.000000 -1.000000  0.000000        0.00000            
REMARK 290   SMTRY2   3  1.000000  0.000000  0.000000        0.00000            
REMARK 290   SMTRY3   3  0.000000  0.000000  1.000000      162.66075            
REMARK 290   SMTRY1   4  0.000000  1.000000  0.000000        0.00000            
REMARK 290   SMTRY2   4 -1.000000  0.000000  0.000000        0.00000            
REMARK 290   SMTRY3   4  0.000000  0.000000  1.000000       54.22025            
REMARK 290   SMTRY1   5 -1.000000  0.000000  0.000000        0.00000            
REMARK 290   SMTRY2   5  0.000000  1.000000  0.000000        0.00000            
REMARK 290   SMTRY3   5  0.000000  0.000000 -1.000000        0.00000            
REMARK 290   SMTRY1   6  1.000000  0.000000  0.000000        0.00000            
REMARK 290   SMTRY2   6  0.000000 -1.000000  0.000000        0.00000            
REMARK 290   SMTRY3   6  0.000000  0.000000 -1.000000      108.44050            
REMARK 290   SMTRY1   7  0.000000  1.000000  0.000000        0.00000            
REMARK 290   SMTRY2   7  1.000000  0.000000  0.000000        0.00000            
REMARK 290   SMTRY3   7  0.000000  0.000000 -1.000000       54.22025            
REMARK 290   SMTRY1   8  0.000000 -1.000000  0.000000        0.00000            
REMARK 290   SMTRY2   8 -1.000000  0.000000  0.000000        0.00000            
REMARK 290   SMTRY3   8  0.000000  0.000000 -1.000000      162.66075            
REMARK 290                                                                      
REMARK 290 REMARK: NULL                                                         
CRYST1   42.313   42.313  216.881  90.00  90.00  90.00 P 43 2 2                 


$$$$
Zx0051a_ligand
  PyMOL3.0          3D                             0

 12 13  0  0  0  0  0  0  0  0999 V2000
   -9.1560    4.4970  -18.3440 C   0  0  0  0  0  0  0  0  0  0  0  0
  -10.3870    4.1190  -18.6950 N   0  0  0  0  0  0  0  0  0  0  0  0
   -3.2920    5.3970  -18.5120 O   0  0  0  0  0  0  0  0  0  0  0  0
   -8.8720    5.1770  -16.7490 S   0  0  0  0  0  0  0  0  0  0  0  0
   -6.9580    4.8470  -18.4480 C   0  0  0  0  0  0  0  0  0  0  0  0
   -8.0990    4.3830  -19.1080 N   0  0  0  0  0  0  0  0  0  0  0  0
   -7.1790    5.3010  -17.1430 C   0  0  0  0  0  0  0  0  0  0  0  0
   -6.1270    5.7430  -16.3500 C   0  0  0  0  0  0  0  0  0  0  0  0
   -4.8440    5.7420  -16.8670 C   0  0  0  0  0  0  0  0  0  0  0  0
   -5.6660    4.8800  -18.9760 C   0  0  0  0  0  0  0  0  0  0  0  0
   -4.6190    5.3220  -18.1700 C   0  0  0  0  0  0  0  0  0  0  0  0
   -2.9070    4.9900  -19.8280 C   0  0  0  0  0  0  0  0  0  0  0  0
  1  4  4  0  0  0  0
  1  6  4  0  0  0  0
  1  2  1  0  0  0  0
  3 12  1  0  0  0  0
  4  7  4  0  0  0  0
  5  7  4  0  0  0  0
  5 10  4  0  0  0  0
  5  6  4  0  0  0  0
  7  8  4  0  0  0  0
  8  9  4  0  0  0  0
  9 11  4  0  0  0  0
 10 11  4  0  0  0  0
  3 11  1  0  0  0  0
M  END
>  <pdb_header>
COMPND    XX01ZVNS2B-x0051_B_301_XX01ZVNS2B-x1291+B+301+1


$$$$
Zx0089a
  PyMOL3.0          3D                             0

 13 14  0  0  0  0  0  0  0  0999 V2000
   -4.5490    5.1760  -19.6810 N   0  0  0  0  0  0  0  0  0  0  0  0
   -2.7040    6.6710  -19.1670 C   0  0  0  0  0  0  0  0  0  0  0  0
   -3.2540    5.2720  -18.9990 C   0  0  0  0  0  0  0  0  0  0  0  0
   -5.8360    4.9760  -17.7090 N   0  0  0  0  0  0  0  0  0  0  0  0
   -2.3050    4.2260  -19.5470 C   0  0  0  0  0  0  0  0  0  0  0  0
   -6.9150    4.8070  -19.6610 N   0  0  0  0  0  0  0  0  0  0  0  0
   -5.7350    5.0100  -19.0280 C   0  0  0  0  0  0  0  0  0  0  0  0
   -7.1840    4.7200  -17.4580 C   0  0  0  0  0  0  0  0  0  0  0  0
   -7.8620    4.5270  -16.2550 C   0  0  0  0  0  0  0  0  0  0  0  0
   -9.2080    4.1980  -16.2950 C   0  0  0  0  0  0  0  0  0  0  0  0
   -9.8780    4.0690  -17.5040 C   0  0  0  0  0  0  0  0  0  0  0  0
   -9.2190    4.2820  -18.7100 C   0  0  0  0  0  0  0  0  0  0  0  0
   -7.8690    4.6040  -18.6650 C   0  0  0  0  0  0  0  0  0  0  0  0
  1  7  1  0  0  0  0
  1  3  1  0  0  0  0
  2  3  1  0  0  0  0
  3  5  1  0  0  0  0
  6 13  4  0  0  0  0
  4  7  4  0  0  0  0
  6  7  4  0  0  0  0
  4  8  4  0  0  0  0
  8  9  4  0  0  0  0
  9 10  4  0  0  0  0
 10 11  4  0  0  0  0
 11 12  4  0  0  0  0
  8 13  4  0  0  0  0
 12 13  4  0  0  0  0
M  END
>  <pdb_header>
HEADER    ----                                    18-MAY-23                     
TITLE     ---                                                                   
EXPDTA    X-RAY DIFFRACTION                                                     
REMARK --------------------- added by autoBUSTER ---------------------------------START
REMARK run at   = Fri Oct 27 16:39:59 BST 2023
REMARK     in   = /dls/labxchem/data/lb32627/lb32627-65/processing/analysis/model_building/XX01ZVNS2B-x0089
REMARK     user = kyf22269
REMARK     cmd  = \
REMARK            /dls_sw/apps/GPhL/BUSTER/20230726/autoBUSTER/bin/linux64/refine \
REMARK            -p \
REMARK            /dls/labxchem/data/lb32627/lb32627-65/processing/analysis/model_building/XX01ZVNS2B-x0089/cootOut/Refi
REMARK            -m \
REMARK            /dls/labxchem/data/lb32627/lb32627-65/processing/analysis/model_building/XX01ZVNS2B-x0089/XX01ZVNS2B-x
REMARK            -l \
REMARK            /dls/labxchem/data/lb32627/lb32627-65/processing/analysis/model_building/XX01ZVNS2B-x0089/Z336080990.c
REMARK            -autoncs -M TLSbasic -d Refine_10
REMARK Files used:
REMARK   PDB              = Refine_10/pdbchk.pdb
REMARK   MTZ              = /dls/labxchem/data/lb32627/lb32627-65/processing/analysis/model_building/XX01ZVNS2B-x0089/XX
REMARK output written to subdirectory = Refine_10
REMARK best refinement for F,SIGF with R/Rfree 0.2213/0.2468
REMARK header records are copied from input PDB file (apart from REMARK 3!)
REMARK --------------------- added by autoBUSTER -----------------------------------END
REMARK --------------------- added by autoBUSTER -------------------------------
REMARK run at   = Fri Sep 15 16:14:02 BST 2023                                  
REMARK     in   = /dls/labxchem/data/lb32627/lb32627-65/processing/analysis/mode
REMARK     user = kyf22269                                                      
REMARK     cmd  = \                                                             
REMARK            /dls_sw/apps/GPhL/BUSTER/20230726/autoBUSTER/bin/linux64/refin
REMARK            -p \                                                          
REMARK            /dls/labxchem/data/lb32627/lb32627-65/processing/analysis/mode
REMARK            -m \                                                          
REMARK            /dls/labxchem/data/lb32627/lb32627-65/processing/analysis/mode
REMARK            -l \                                                          
REMARK            /dls/labxchem/data/lb32627/lb32627-65/processing/analysis/mode
REMARK            -autoncs -M TLSbasic -d Refine_9                              
REMARK Files used:                                                              
REMARK   PDB              = Refine_9/pdbchk.pdb                                 
REMARK   MTZ              = /dls/labxchem/data/lb32627/lb32627-65/processing/ana
REMARK output written to subdirectory = Refine_9                                
REMARK best refinement for F,SIGF with R/Rfree 0.2217/0.2481                    
REMARK header records are copied from input PDB file (apart from REMARK 3!)     
REMARK --------------------- added by autoBUSTER -------------------------------
REMARK --------------------- added by autoBUSTER -------------------------------
REMARK run at   = Mon Sep  4 13:25:32 BST 2023                                  
REMARK     in   = /dls/labxchem/data/lb32627/lb32627-65/processing/analysis/mode
REMARK     user = kyf22269                                                      
REMARK     cmd  = \                                                             
REMARK            /dls_sw/apps/GPhL/BUSTER/20230726/autoBUSTER/bin/linux64/refin
REMARK            -p \                                                          
REMARK            /dls/labxchem/data/lb32627/lb32627-65/processing/analysis/mode
REMARK            -m \                                                          
REMARK            /dls/labxchem/data/lb32627/lb32627-65/processing/analysis/mode
REMARK            -l \                                                          
REMARK            /dls/labxchem/data/lb32627/lb32627-65/processing/analysis/mode
REMARK            -autoncs -M TLSbasic -d Refine_8                              
REMARK Files used:                                                              
REMARK   PDB              = Refine_8/pdbchk.pdb                                 
REMARK   MTZ              = /dls/labxchem/data/lb32627/lb32627-65/processing/ana
REMARK output written to subdirectory = Refine_8                                
REMARK best refinement for F,SIGF with R/Rfree 0.2226/0.2519                    
REMARK header records are copied from input PDB file (apart from REMARK 3!)     
REMARK --------------------- added by autoBUSTER -------------------------------
REMARK --------------------- added by autoBUSTER -------------------------------
REMARK run at   = Mon Jun 12 14:55:46 BST 2023                                  
REMARK     in   = /dls/labxchem/data/lb32627/lb32627-65/processing/analysis/mode
REMARK     user = xau79897                                                      
REMARK     cmd  = \                                                             
REMARK            /dls_sw/apps/GPhL/BUSTER/20230217/autoBUSTER/bin/linux64/refin
REMARK            -p \                                                          
REMARK            /dls/labxchem/data/lb32627/lb32627-65/processing/analysis/mode
REMARK            -m \                                                          
REMARK            /dls/labxchem/data/lb32627/lb32627-65/processing/analysis/mode
REMARK            -l \                                                          
REMARK            /dls/labxchem/data/lb32627/lb32627-65/processing/analysis/mode
REMARK            -autoncs -M TLSbasic -B user -Gelly gelly.dat \               
REMARK            StopOnGellySanityCheckError=no -d Refine_7                    
REMARK Files used:                                                              
REMARK   PDB              = Refine_7/pdbchk.pdb                                 
REMARK   MTZ              = /dls/labxchem/data/lb32627/lb32627-65/processing/ana
REMARK   Gelly commands       = /dls/labxchem/data/lb32627/lb32627-65/processing
REMARK output written to subdirectory = Refine_7                                
REMARK best refinement for F,SIGF with R/Rfree 0.2224/0.2525                    
REMARK header records are copied from input PDB file (apart from REMARK 3!)     
REMARK --------------------- added by autoBUSTER -------------------------------
REMARK --------------------- added by autoBUSTER -------------------------------
REMARK run at   = Thu Jun  1 13:44:44 BST 2023                                  
REMARK     in   = /dls/labxchem/data/lb32627/lb32627-65/processing/analysis/mode
REMARK     user = xau79897                                                      
REMARK     cmd  = \                                                             
REMARK            /dls_sw/apps/GPhL/BUSTER/20230217/autoBUSTER/bin/linux64/refin
REMARK            -p \                                                          
REMARK            /dls/labxchem/data/lb32627/lb32627-65/processing/analysis/mode
REMARK            -m \                                                          
REMARK            /dls/labxchem/data/lb32627/lb32627-65/processing/analysis/mode
REMARK            -l \                                                          
REMARK            /dls/labxchem/data/lb32627/lb32627-65/processing/analysis/mode
REMARK            -autoncs -M TLSbasic -d Refine_6                              
REMARK Files used:                                                              
REMARK   PDB              = Refine_6/pdbchk.pdb                                 
REMARK   MTZ              = /dls/labxchem/data/lb32627/lb32627-65/processing/ana
REMARK output written to subdirectory = Refine_6                                
REMARK best refinement for F,SIGF with R/Rfree 0.2230/0.2586                    
REMARK header records are copied from input PDB file (apart from REMARK 3!)     
REMARK --------------------- added by autoBUSTER -------------------------------
REMARK --------------------- added by autoBUSTER -------------------------------
REMARK run at   = Wed May 24 19:32:06 BST 2023                                  
REMARK     in   = /dls/labxchem/data/lb32627/lb32627-65/processing/analysis/mode
REMARK     user = xau79897                                                      
REMARK     cmd  = \                                                             
REMARK            /dls_sw/apps/GPhL/BUSTER/20230217/autoBUSTER/bin/linux64/refin
REMARK            -p \                                                          
REMARK            /dls/labxchem/data/lb32627/lb32627-65/processing/analysis/mode
REMARK            -m \                                                          
REMARK            /dls/labxchem/data/lb32627/lb32627-65/processing/analysis/mode
REMARK            -l \                                                          
REMARK            /dls/labxchem/data/lb32627/lb32627-65/processing/analysis/mode
REMARK            -autoncs -M TLSbasic -d Refine_5                              
REMARK Files used:                                                              
REMARK   PDB              = Refine_5/pdbchk.pdb                                 
REMARK   MTZ              = /dls/labxchem/data/lb32627/lb32627-65/processing/ana
REMARK output written to subdirectory = Refine_5                                
REMARK best refinement for F,SIGF with R/Rfree 0.2229/0.2583                    
REMARK header records are copied from input PDB file (apart from REMARK 3!)     
REMARK --------------------- added by autoBUSTER -------------------------------
REMARK --------------------- added by autoBUSTER -------------------------------
REMARK run at   = Tue May 23 19:44:33 BST 2023                                  
REMARK     in   = /dls/labxchem/data/lb32627/lb32627-65/processing/analysis/mode
REMARK     user = xau79897                                                      
REMARK     cmd  = \                                                             
REMARK            /dls_sw/apps/GPhL/BUSTER/20230217/autoBUSTER/bin/linux64/refin
REMARK            -p \                                                          
REMARK            /dls/labxchem/data/lb32627/lb32627-65/processing/analysis/mode
REMARK            -m \                                                          
REMARK            /dls/labxchem/data/lb32627/lb32627-65/processing/analysis/mode
REMARK            -l \                                                          
REMARK            /dls/labxchem/data/lb32627/lb32627-65/processing/analysis/mode
REMARK            -autoncs -M TLSbasic -WAT -B user -Gelly gelly.dat \          
REMARK            StopOnGellySanityCheckError=no -d Refine_4                    
REMARK Files used:                                                              
REMARK   PDB              = Refine_4/pdbchk.pdb                                 
REMARK   MTZ              = /dls/labxchem/data/lb32627/lb32627-65/processing/ana
REMARK   Gelly commands       = /dls/labxchem/data/lb32627/lb32627-65/processing
REMARK output written to subdirectory = Refine_4                                
REMARK best refinement for F,SIGF with R/Rfree 0.2238/0.2593                    
REMARK header records are copied from input PDB file (apart from REMARK 3!)     
REMARK --------------------- added by autoBUSTER -------------------------------
REMARK --------------------- added by autoBUSTER -------------------------------
REMARK run at   = Tue May 23 17:00:03 BST 2023                                  
REMARK     in   = /dls/labxchem/data/lb32627/lb32627-65/processing/analysis/mode
REMARK     user = xau79897                                                      
REMARK     cmd  = \                                                             
REMARK            /dls_sw/apps/GPhL/BUSTER/20230217/autoBUSTER/bin/linux64/refin
REMARK            -p \                                                          
REMARK            /dls/labxchem/data/lb32627/lb32627-65/processing/analysis/mode
REMARK            -m \                                                          
REMARK            /dls/labxchem/data/lb32627/lb32627-65/processing/analysis/mode
REMARK            -l \                                                          
REMARK            /dls/labxchem/data/lb32627/lb32627-65/processing/analysis/mode
REMARK            -autoncs -M TLSbasic -d Refine_3                              
REMARK Files used:                                                              
REMARK   PDB              = Refine_3/pdbchk.pdb                                 
REMARK   MTZ              = /dls/labxchem/data/lb32627/lb32627-65/processing/ana
REMARK output written to subdirectory = Refine_3                                
REMARK best refinement for F,SIGF with R/Rfree 0.2334/0.2594                    
REMARK header records are copied from input PDB file (apart from REMARK 3!)     
REMARK --------------------- added by autoBUSTER -------------------------------
REMARK   2                                                            
REMARK   2 RESOLUTION.    1.41 ANGSTROMS.
REMARK   3
REMARK   3 REFINEMENT.
REMARK   3   PROGRAM     : BUSTER 2.10.4 (26-JUL-2023)
REMARK   3   AUTHORS     : BRICOGNE,BLANC,BRANDL,FLENSBURG,KELLER,
REMARK   3               : PACIOREK,ROVERSI,SHARFF,SMART,VONRHEIN,WOMACK;
REMARK   3               : MATTHEWS,TEN EYCK,TRONRUD
REMARK   3
REMARK   3  DATA USED IN REFINEMENT.
REMARK   3   RESOLUTION RANGE HIGH (ANGSTROMS) : 1.414
REMARK   3   RESOLUTION RANGE LOW  (ANGSTROMS) : 25.02
REMARK   3   DATA CUTOFF            (SIGMA(F)) : 0.000
REMARK   3   COMPLETENESS FOR RANGE        (%) : 86.9
REMARK   3   NUMBER OF REFLECTIONS             : 34380
REMARK   3
REMARK   3  FIT TO DATA USED IN REFINEMENT.
REMARK   3   CROSS-VALIDATION METHOD          : THROUGHOUT
REMARK   3   FREE R VALUE TEST SET SELECTION  : RANDOM
REMARK   3   R VALUE     (WORKING + TEST SET) : 0.2226
REMARK   3   R VALUE            (WORKING SET) : 0.2213
REMARK   3   FREE R VALUE                     : 0.2468
REMARK   3   FREE R VALUE TEST SET SIZE   (%) : 5.050
REMARK   3   FREE R VALUE TEST SET COUNT      : 1737
REMARK   3   ESTIMATED ERROR OF FREE R VALUE  : NULL
REMARK   3
REMARK   3  FIT IN THE HIGHEST RESOLUTION BIN.
REMARK   3   TOTAL NUMBER OF BINS USED           : 51
REMARK   3   BIN RESOLUTION RANGE HIGH       (A) : 1.41
REMARK   3   BIN RESOLUTION RANGE LOW        (A) : 1.49
REMARK   3   BIN COMPLETENESS (WORKING+TEST) (%) : 12.12
REMARK   3   REFLECTIONS IN BIN   (WORKING+TEST) : 688
REMARK   3   BIN R VALUE          (WORKING+TEST) : 0.6126
REMARK   3   REFLECTIONS IN BIN    (WORKING SET) : 649
REMARK   3   BIN R VALUE           (WORKING SET) : 0.6141
REMARK   3   BIN FREE R VALUE                    : 0.5850
REMARK   3   BIN FREE R VALUE TEST SET SIZE  (%) : 5.67
REMARK   3   BIN FREE R VALUE TEST SET COUNT     : 39
REMARK   3   ESTIMATED ERROR OF BIN FREE R VALUE : NULL
REMARK   3
REMARK   3  NUMBER OF NON-HYDROGEN ATOMS USED IN REFINEMENT.
REMARK   3   PROTEIN ATOMS            : 1476
REMARK   3   NUCLEIC ACID ATOMS       : 0
REMARK   3   HETEROGEN ATOMS          : 21
REMARK   3   SOLVENT ATOMS            : 138
REMARK   3
REMARK   3  B VALUES.
REMARK   3   FROM WILSON PLOT           (A**2) : 30.28
REMARK   3   MEAN B VALUE      (OVERALL, A**2) : 50.87
REMARK   3   OVERALL ANISOTROPIC B VALUE.
REMARK   3    B11 (A**2) : -6.14510
REMARK   3    B22 (A**2) : -6.14510
REMARK   3    B33 (A**2) : 12.29030
REMARK   3    B12 (A**2) : 0.00000
REMARK   3    B13 (A**2) : 0.00000
REMARK   3    B23 (A**2) : 0.00000
REMARK   3
REMARK   3  ESTIMATED COORDINATE ERROR.
REMARK   3   ESD FROM LUZZATI PLOT                    (A) : 0.33
REMARK   3   DPI (BLOW EQ-10) BASED ON R VALUE        (A) : 0.088
REMARK   3   DPI (BLOW EQ-9) BASED ON FREE R VALUE    (A) : 0.086
REMARK   3   DPI (CRUICKSHANK) BASED ON R VALUE       (A) : 0.083
REMARK   3   DPI (CRUICKSHANK) BASED ON FREE R VALUE  (A) : 0.082
REMARK   3
REMARK   3   REFERENCES: BLOW, D. (2002) ACTA CRYST D58, 792-797
REMARK   3               CRUICKSHANK, D.W.J. (1999) ACTA CRYST D55, 583-601
REMARK   3
REMARK   3  CORRELATION COEFFICIENTS.
REMARK   3   CORRELATION COEFFICIENT FO-FC      : 0.952
REMARK   3   CORRELATION COEFFICIENT FO-FC FREE : 0.945
REMARK   3
REMARK   3  X-RAY WEIGHT : 6.41
REMARK   3
REMARK   3  GEOMETRY FUNCTION.                                                  
REMARK   3   RESTRAINT LIBRARIES.                                               
REMARK   3    NUMBER OF LIBRARIES USED :   9                                    
REMARK   3    LIBRARY  1 : protgeo_eh99.dat (V1.6.4.20) 20220523  STANDARD      
REMARK   3                 AMINO ACID DICTIONARY. BONDS AND ANGLES FROM         
REMARK   3                 ENGH AND HUBER EH99. OTHER VALUES BASED ON           
REMARK   3                 PREVIOUS TNT OR TAKEN FROM CCP4. INCLUDES            
REMARK   3                 HYDROGEN ATOMS.                                      
REMARK   3    LIBRARY  2 : exoticaa.dat (V1.3.4.16) 20220523  COLLECTION        
REMARK   3                 OF NON-STANDARD AMINO ACIDS, MAINLY EH91             
REMARK   3                 WITHOUT IDEAL DISTANCE INFO                          
REMARK   3    LIBRARY  3 : nuclgeo.dat (V1.13.4.9) 20221011                     
REMARK   3    LIBRARY  4 : bcorrel.dat (V1.15.10.2) 20190616                    
REMARK   3    LIBRARY  5 : contact.dat (V1.15.12.10) 20191121                   
REMARK   3    LIBRARY  6 : idealdist_contact.dat (V1.3.4.14) 20230724           
REMARK   3                 IDEAL-DISTANCE CONTACT TERM DATA AS USED IN          
REMARK   3                 PROLSQ. VALUES USED HERE ARE BASEd ON DATA           
REMARK   3                 HARVESTING OF PDB AS OF 20190109                     
REMARK   3    LIBRARY  7 : restraints for LIG (unknown) from cif                
REMARK   3                 dictionary Z336080990.cif; generated by GRADE        
REMARK   3                 1.2.21 (Feb 03 2022) from SMILES                     
REMARK   3                 CC(C)Nc1nc2ccccc2[nH]1 using MOGUL                   
REMARK   3                 1.8.5(274361), CSD as541be, with quantum             
REMARK   3                 mechanics RM1                                        
REMARK   3    LIBRARY  8 : restraints for DMS (DIMETHYL SULFOXIDE) from         
REMARK   3                 cif dictionary DMS.cif; generated by grade2          
REMARK   3                 version 1.1.0a7 from                                 
REMARK   3                 PDB_chemical_components_definition_file              
REMARK   3                 ftp://ftp.ebi.ac.uk/pub/databases/msd/pdbechem_v     
REMARK   3                 2/D/DMS/DMS.cif using RDKit 2021.03.4                
REMARK   3                 ((DatabaseID PDB-DMS))                               
REMARK   3    LIBRARY  9 : assume.dat (V1.9.4.3) 20221011                       
REMARK   3                                                                      
REMARK   3   NUMBER OF GEOMETRIC FUNCTION TERMS DEFINED : 15                    
REMARK   3   TERM                          COUNT    WEIGHT   FUNCTION.          
REMARK   3    BOND LENGTHS              :   1652 ;   2.00 ;  HARMONIC           
REMARK   3    BOND ANGLES               :   2265 ;   2.00 ;  HARMONIC           
REMARK   3    TORSION ANGLES            :    558 ;   2.00 ;  SINUSOIDAL         
REMARK   3    TRIGONAL CARBON PLANES    :   NULL ;   NULL ;  NULL               
REMARK   3    GENERAL PLANES            :    300 ;   5.00 ;  HARMONIC           
REMARK   3    ISOTROPIC THERMAL FACTORS :   1652 ;  10.00 ;  HARMONIC           
REMARK   3    BAD NON-BONDED CONTACTS   :   NULL ;   NULL ;  NULL               
REMARK   3    IMPROPER TORSIONS         :   NULL ;   NULL ;  NULL               
REMARK   3    PSEUDOROTATION ANGLES     :   NULL ;   NULL ;  NULL               
REMARK   3    CHIRAL IMPROPER TORSION   :    206 ;   5.00 ;  SEMIHARMONIC       
REMARK   3    SUM OF OCCUPANCIES        :   NULL ;   NULL ;  NULL               
REMARK   3    UTILITY DISTANCES         :   NULL ;   NULL ;  NULL               
REMARK   3    UTILITY ANGLES            :   NULL ;   NULL ;  NULL               
REMARK   3    UTILITY TORSION           :   NULL ;   NULL ;  NULL               
REMARK   3    IDEAL-DIST CONTACT TERM   :   1418 ;   4.00 ;  SEMIHARMONIC       
REMARK   3                                                                      
REMARK   3   RMS DEVIATIONS FROM IDEAL VALUES.                                  
REMARK   3   BOND LENGTHS                       (A) : 0.011                     
REMARK   3   BOND ANGLES                  (DEGREES) : 1.07                      
REMARK   3   PEPTIDE OMEGA TORSION ANGLES (DEGREES) : 4.06                      
REMARK   3   OTHER TORSION ANGLES         (DEGREES) : 15.55                     
REMARK   3                                                                      
REMARK   3   SIMILARITY.                                                        
REMARK   3    NCS.                                                              
REMARK   3     NCS METHOD: NONE                                                 
REMARK   3    TARGET RESTRAINTS.                                                
REMARK   3     TARGET REPRESENTATION : NONE                                     
REMARK   3     TARGET STRUCTURE : NULL                                          
REMARK   3                                                                      
REMARK   3  TLS DETAILS.                                                        
REMARK   3   NUMBER OF TLS GROUPS  :            2                               
REMARK   3                                                                      
REMARK   3   TLS GROUP :            1                                           
REMARK   3    SET : { A|* }                                                     
REMARK   3    ORIGIN FOR THE GROUP (A):  -14.4306   -1.6619  -19.8507           
REMARK   3    T TENSOR                                                          
REMARK   3     T11:    0.0495 T22:    0.0676                                    
REMARK   3     T33:   -0.1635 T12:    0.2358                                    
REMARK   3     T13:    0.1483 T23:    0.1296                                    
REMARK   3    L TENSOR                                                          
REMARK   3     L11:    3.2181 L22:    3.5853                                    
REMARK   3     L33:    2.8480 L12:   -1.7906                                    
REMARK   3     L13:    1.1006 L23:    0.8744                                    
REMARK   3    S TENSOR                                                          
REMARK   3     S11:    0.5759 S12:    0.5755 S13:    0.3757                     
REMARK   3     S21:   -0.5739 S22:   -0.5126 S23:   -0.3068                     
REMARK   3     S31:   -0.1034 S32:    0.5909 S33:   -0.0632                     
REMARK   3                                                                      
REMARK   3   TLS GROUP :            2                                           
REMARK   3    SET : { B|* }                                                     
REMARK   3    ORIGIN FOR THE GROUP (A):  -18.1674    0.8891  -15.6106           
REMARK   3    T TENSOR                                                          
REMARK   3     T11:    0.1120 T22:    0.0626                                    
REMARK   3     T33:   -0.0104 T12:    0.1981                                    
REMARK   3     T13:    0.0648 T23:    0.0575                                    
REMARK   3    L TENSOR                                                          
REMARK   3     L11:    1.3716 L22:    0.9150                                    
REMARK   3     L33:    1.6423 L12:   -0.9338                                    
REMARK   3     L13:    0.9548 L23:    0.0255                                    
REMARK   3    S TENSOR                                                          
REMARK   3     S11:    0.3749 S12:    0.2117 S13:    0.1856                     
REMARK   3     S21:   -0.1826 S22:   -0.3803 S23:    0.0386                     
REMARK   3     S31:    0.0716 S32:    0.2568 S33:    0.0054                     
REMARK   3                                                                      
REMARK   3  REFINEMENT NOTES.                                                   
REMARK   3   NUMBER OF REFINEMENT NOTES :   1                                   
REMARK   3   NOTE   1 : IDEAL-DIST CONTACT TERM CONTACT SETUP. ALL ATOMS        
REMARK   3               HAVE CCP4 ATOM TYPE FROM LIBRARY                       
REMARK   3
REMARK   3  OTHER REFINEMENT REMARKS: NULL
REMARK   3
REMARK 290                                                            
REMARK 290 CRYSTALLOGRAPHIC SYMMETRY                                  
REMARK 290 SYMMETRY OPERATORS FOR SPACE GROUP: P 43 2 2               
REMARK 290                                                            
REMARK 290      SYMOP   SYMMETRY                                      
REMARK 290     NNNMMM   OPERATOR                                      
REMARK 290       1555   X,Y,Z                                         
REMARK 290       2555   -X,-Y,1/2+Z                                   
REMARK 290       3555   -Y,X,3/4+Z                                    
REMARK 290       4555   Y,-X,1/4+Z                                    
REMARK 290       5555   -X,Y,-Z                                       
REMARK 290       6555   X,-Y,1/2-Z                                    
REMARK 290       7555   Y,X,1/4-Z                                     
REMARK 290       8555   -Y,-X,3/4-Z                                   
REMARK 290                                                            
REMARK 290     WHERE NNN -> OPERATOR NUMBER                           
REMARK 290           MMM -> TRANSLATION VECTOR                        
REMARK 290                                                            
REMARK 290 CRYSTALLOGRAPHIC SYMMETRY TRANSFORMATIONS                  
REMARK 290 THE FOLLOWING TRANSFORMATIONS OPERATE ON THE ATOM/HETATM   
REMARK 290 RECORDS IN THIS ENTRY TO PRODUCE CRYSTALLOGRAPHICALLY      
REMARK 290 RELATED MOLECULES.                                         
REMARK 290   SMTRY1   1  1.000000  0.000000  0.000000        0.00000
REMARK 290   SMTRY2   1  0.000000  1.000000  0.000000        0.00000
REMARK 290   SMTRY3   1  0.000000  0.000000  1.000000        0.00000
REMARK 290   SMTRY1   2 -1.000000  0.000000  0.000000        0.00000
REMARK 290   SMTRY2   2  0.000000 -1.000000  0.000000        0.00000
REMARK 290   SMTRY3   2  0.000000  0.000000  1.000000      108.26250
REMARK 290   SMTRY1   3  0.000000 -1.000000  0.000000        0.00000
REMARK 290   SMTRY2   3  1.000000  0.000000  0.000000        0.00000
REMARK 290   SMTRY3   3  0.000000  0.000000  1.000000      162.39375
REMARK 290   SMTRY1   4  0.000000  1.000000  0.000000        0.00000
REMARK 290   SMTRY2   4 -1.000000  0.000000  0.000000        0.00000
REMARK 290   SMTRY3   4  0.000000  0.000000  1.000000       54.13125
REMARK 290   SMTRY1   5 -1.000000  0.000000  0.000000        0.00000
REMARK 290   SMTRY2   5  0.000000  1.000000  0.000000        0.00000
REMARK 290   SMTRY3   5  0.000000  0.000000 -1.000000        0.00000
REMARK 290   SMTRY1   6  1.000000  0.000000  0.000000        0.00000
REMARK 290   SMTRY2   6  0.000000 -1.000000  0.000000        0.00000
REMARK 290   SMTRY3   6  0.000000  0.000000 -1.000000      108.26250
REMARK 290   SMTRY1   7  0.000000  1.000000  0.000000        0.00000
REMARK 290   SMTRY2   7  1.000000  0.000000  0.000000        0.00000
REMARK 290   SMTRY3   7  0.000000  0.000000 -1.000000       54.13125
REMARK 290   SMTRY1   8  0.000000 -1.000000  0.000000        0.00000
REMARK 290   SMTRY2   8 -1.000000  0.000000  0.000000        0.00000
REMARK 290   SMTRY3   8  0.000000  0.000000 -1.000000      162.39375
REMARK 290                                                            
REMARK 290 REMARK: NULL                                               
CRYST1   42.574   42.574  216.525  90.00  90.00  90.00 P 43 2 2                 


$$$$
Zx0089a_ligand
  PyMOL3.0          3D                             0

 13 14  0  0  0  0  0  0  0  0999 V2000
   -2.3050    4.2260  -19.5470 C   0  0  0  0  0  0  0  0  0  0  0  0
   -4.5490    5.1760  -19.6810 N   0  0  0  0  0  0  0  0  0  0  0  0
   -3.2540    5.2720  -18.9990 C   0  0  0  0  0  0  0  0  0  0  0  0
   -6.9150    4.8070  -19.6610 N   0  0  0  0  0  0  0  0  0  0  0  0
   -2.7040    6.6710  -19.1670 C   0  0  0  0  0  0  0  0  0  0  0  0
   -5.8360    4.9760  -17.7090 N   0  0  0  0  0  0  0  0  0  0  0  0
   -5.7350    5.0100  -19.0280 C   0  0  0  0  0  0  0  0  0  0  0  0
   -7.8690    4.6040  -18.6650 C   0  0  0  0  0  0  0  0  0  0  0  0
   -7.1840    4.7200  -17.4580 C   0  0  0  0  0  0  0  0  0  0  0  0
   -9.2190    4.2820  -18.7100 C   0  0  0  0  0  0  0  0  0  0  0  0
   -9.8780    4.0690  -17.5040 C   0  0  0  0  0  0  0  0  0  0  0  0
   -9.2080    4.1980  -16.2950 C   0  0  0  0  0  0  0  0  0  0  0  0
   -7.8620    4.5270  -16.2550 C   0  0  0  0  0  0  0  0  0  0  0  0
  1  3  1  0  0  0  0
  2  7  1  0  0  0  0
  2  3  1  0  0  0  0
  3  5  1  0  0  0  0
  4  8  4  0  0  0  0
  4  7  4  0  0  0  0
  6  7  4  0  0  0  0
  8  9  4  0  0  0  0
  8 10  4  0  0  0  0
  6  9  4  0  0  0  0
  9 13  4  0  0  0  0
 10 11  4  0  0  0  0
 11 12  4  0  0  0  0
 12 13  4  0  0  0  0
M  END
>  <pdb_header>
COMPND    XX01ZVNS2B-x0089_B_301_XX01ZVNS2B-x1291+B+301+1


$$$$
Zx0101a
  PyMOL3.0          3D                             0

 15 15  0  0  0  0  0  0  0  0999 V2000
   -5.7920    5.1590  -19.8860 N   0  0  0  0  0  0  0  0  0  0  0  0
   -4.4360    6.9760  -20.8340 C   0  0  0  0  0  0  0  0  0  0  0  0
   -5.7740    5.6370  -22.9820 O   0  0  0  0  0  0  0  0  0  0  0  0
  -10.7680    3.7320  -18.5150 Cl  0  0  0  0  0  0  0  0  0  0  0  0
   -4.6580    5.4610  -20.7920 C   0  0  0  0  0  0  0  0  0  0  0  0
   -4.7590    5.6210  -17.9390 O   0  0  0  0  0  0  0  0  0  0  0  0
   -3.3830    4.7800  -20.3100 C   0  0  0  0  0  0  0  0  0  0  0  0
   -4.9090    4.8630  -22.1680 C   0  0  0  0  0  0  0  0  0  0  0  0
   -5.7650    5.2590  -18.5420 C   0  0  0  0  0  0  0  0  0  0  0  0
   -7.0170    4.9040  -17.8000 C   0  0  0  0  0  0  0  0  0  0  0  0
   -6.9830    4.9180  -16.4090 C   0  0  0  0  0  0  0  0  0  0  0  0
   -8.0980    4.5510  -15.6750 C   0  0  0  0  0  0  0  0  0  0  0  0
   -9.2610    4.1610  -16.3180 C   0  0  0  0  0  0  0  0  0  0  0  0
   -9.2890    4.1570  -17.6960 C   0  0  0  0  0  0  0  0  0  0  0  0
   -8.1880    4.5210  -18.4480 C   0  0  0  0  0  0  0  0  0  0  0  0
  1  5  1  0  0  0  0
  4 14  1  0  0  0  0
  2  5  1  0  0  0  0
  5  7  1  0  0  0  0
  5  8  1  0  0  0  0
  3  8  1  0  0  0  0
  1  9  1  0  0  0  0
  6  9  2  0  0  0  0
  9 10  1  0  0  0  0
 10 11  4  0  0  0  0
 11 12  4  0  0  0  0
 12 13  4  0  0  0  0
 13 14  4  0  0  0  0
 14 15  4  0  0  0  0
 10 15  4  0  0  0  0
M  END
>  <pdb_header>
HEADER    ----                                    18-MAY-23                     
TITLE     ---                                                                   
EXPDTA    X-RAY DIFFRACTION                                                     
REMARK --------------------- added by autoBUSTER -------------------------------
REMARK run at   = Mon Jun 12 15:10:56 BST 2023                                  
REMARK     in   = /dls/labxchem/data/lb32627/lb32627-65/processing/analysis/mode
REMARK     user = xau79897                                                      
REMARK     cmd  = \                                                             
REMARK            /dls_sw/apps/GPhL/BUSTER/20230217/autoBUSTER/bin/linux64/refin
REMARK            -p \                                                          
REMARK            /dls/labxchem/data/lb32627/lb32627-65/processing/analysis/mode
REMARK            -m \                                                          
REMARK            /dls/labxchem/data/lb32627/lb32627-65/processing/analysis/mode
REMARK            -l \                                                          
REMARK            /dls/labxchem/data/lb32627/lb32627-65/processing/analysis/mode
REMARK            -autoncs -M TLSbasic -B user -Gelly gelly.dat \               
REMARK            StopOnGellySanityCheckError=no -d Refine_6                    
REMARK Files used:                                                              
REMARK   PDB              = Refine_6/pdbchk.pdb                                 
REMARK   MTZ              = /dls/labxchem/data/lb32627/lb32627-65/processing/ana
REMARK   Gelly commands       = /dls/labxchem/data/lb32627/lb32627-65/processing
REMARK output written to subdirectory = Refine_6                                
REMARK best refinement for F,SIGF with R/Rfree 0.2327/0.2698                    
REMARK header records are copied from input PDB file (apart from REMARK 3!)     
REMARK --------------------- added by autoBUSTER -------------------------------
REMARK --------------------- added by autoBUSTER -------------------------------
REMARK run at   = Wed May 24 19:36:18 BST 2023                                  
REMARK     in   = /dls/labxchem/data/lb32627/lb32627-65/processing/analysis/mode
REMARK     user = xau79897                                                      
REMARK     cmd  = \                                                             
REMARK            /dls_sw/apps/GPhL/BUSTER/20230217/autoBUSTER/bin/linux64/refin
REMARK            -p \                                                          
REMARK            /dls/labxchem/data/lb32627/lb32627-65/processing/analysis/mode
REMARK            -m \                                                          
REMARK            /dls/labxchem/data/lb32627/lb32627-65/processing/analysis/mode
REMARK            -l \                                                          
REMARK            /dls/labxchem/data/lb32627/lb32627-65/processing/analysis/mode
REMARK            -autoncs -M TLSbasic -WAT -B user -Gelly gelly.dat \          
REMARK            StopOnGellySanityCheckError=no -d Refine_5                    
REMARK Files used:                                                              
REMARK   PDB              = Refine_5/pdbchk.pdb                                 
REMARK   MTZ              = /dls/labxchem/data/lb32627/lb32627-65/processing/ana
REMARK   Gelly commands       = /dls/labxchem/data/lb32627/lb32627-65/processing
REMARK output written to subdirectory = Refine_5                                
REMARK best refinement for F,SIGF with R/Rfree 0.2330/0.2667                    
REMARK header records are copied from input PDB file (apart from REMARK 3!)     
REMARK --------------------- added by autoBUSTER -------------------------------
REMARK --------------------- added by autoBUSTER -------------------------------
REMARK run at   = Tue May 23 19:46:52 BST 2023                                  
REMARK     in   = /dls/labxchem/data/lb32627/lb32627-65/processing/analysis/mode
REMARK     user = xau79897                                                      
REMARK     cmd  = \                                                             
REMARK            /dls_sw/apps/GPhL/BUSTER/20230217/autoBUSTER/bin/linux64/refin
REMARK            -p \                                                          
REMARK            /dls/labxchem/data/lb32627/lb32627-65/processing/analysis/mode
REMARK            -m \                                                          
REMARK            /dls/labxchem/data/lb32627/lb32627-65/processing/analysis/mode
REMARK            -l \                                                          
REMARK            /dls/labxchem/data/lb32627/lb32627-65/processing/analysis/mode
REMARK            -autoncs -M TLSbasic -WAT -B user -Gelly gelly.dat \          
REMARK            StopOnGellySanityCheckError=no -d Refine_4                    
REMARK Files used:                                                              
REMARK   PDB              = Refine_4/pdbchk.pdb                                 
REMARK   MTZ              = /dls/labxchem/data/lb32627/lb32627-65/processing/ana
REMARK   Gelly commands       = /dls/labxchem/data/lb32627/lb32627-65/processing
REMARK output written to subdirectory = Refine_4                                
REMARK best refinement for F,SIGF with R/Rfree 0.2356/0.2643                    
REMARK header records are copied from input PDB file (apart from REMARK 3!)     
REMARK --------------------- added by autoBUSTER -------------------------------
REMARK --------------------- added by autoBUSTER -------------------------------
REMARK run at   = Tue May 23 17:00:14 BST 2023                                  
REMARK     in   = /dls/labxchem/data/lb32627/lb32627-65/processing/analysis/mode
REMARK     user = xau79897                                                      
REMARK     cmd  = \                                                             
REMARK            /dls_sw/apps/GPhL/BUSTER/20230217/autoBUSTER/bin/linux64/refin
REMARK            -p \                                                          
REMARK            /dls/labxchem/data/lb32627/lb32627-65/processing/analysis/mode
REMARK            -m \                                                          
REMARK            /dls/labxchem/data/lb32627/lb32627-65/processing/analysis/mode
REMARK            -l \                                                          
REMARK            /dls/labxchem/data/lb32627/lb32627-65/processing/analysis/mode
REMARK            -autoncs -M TLSbasic -d Refine_3                              
REMARK Files used:                                                              
REMARK   PDB              = Refine_3/pdbchk.pdb                                 
REMARK   MTZ              = /dls/labxchem/data/lb32627/lb32627-65/processing/ana
REMARK output written to subdirectory = Refine_3                                
REMARK best refinement for F,SIGF with R/Rfree 0.2385/0.2727                    
REMARK header records are copied from input PDB file (apart from REMARK 3!)     
REMARK --------------------- added by autoBUSTER -------------------------------
REMARK   2                                                                      
REMARK   2 RESOLUTION.    1.55 ANGSTROMS.                                       
REMARK   3                                                                      
REMARK   3 REFINEMENT.                                                          
REMARK   3   PROGRAM     : BUSTER 2.10.4 (17-FEB-2023)                          
REMARK   3   AUTHORS     : BRICOGNE,BLANC,BRANDL,FLENSBURG,KELLER,              
REMARK   3               : PACIOREK,ROVERSI,SHARFF,SMART,VONRHEIN,WOMACK;       
REMARK   3               : MATTHEWS,TEN EYCK,TRONRUD                            
REMARK   3                                                                      
REMARK   3  DATA USED IN REFINEMENT.                                            
REMARK   3   RESOLUTION RANGE HIGH (ANGSTROMS) : 1.550                          
REMARK   3   RESOLUTION RANGE LOW  (ANGSTROMS) : 54.02                          
REMARK   3   DATA CUTOFF            (SIGMA(F)) : 0.000                          
REMARK   3   COMPLETENESS FOR RANGE        (%) : 93.0                           
REMARK   3   NUMBER OF REFLECTIONS             : 28227                          
REMARK   3                                                                      
REMARK   3  FIT TO DATA USED IN REFINEMENT.                                     
REMARK   3   CROSS-VALIDATION METHOD          : THROUGHOUT                      
REMARK   3   FREE R VALUE TEST SET SELECTION  : RANDOM                          
REMARK   3   R VALUE     (WORKING + TEST SET) : 0.2359                          
REMARK   3   R VALUE            (WORKING SET) : 0.2341                          
REMARK   3   FREE R VALUE                     : 0.2697                          
REMARK   3   FREE R VALUE TEST SET SIZE   (%) : 5.070                           
REMARK   3   FREE R VALUE TEST SET COUNT      : 1430                            
REMARK   3   ESTIMATED ERROR OF FREE R VALUE  : NULL                            
REMARK   3                                                                      
REMARK   3  FIT IN THE HIGHEST RESOLUTION BIN.                                  
REMARK   3   TOTAL NUMBER OF BINS USED           : 51                           
REMARK   3   BIN RESOLUTION RANGE HIGH       (A) : 1.55                         
REMARK   3   BIN RESOLUTION RANGE LOW        (A) : 1.58                         
REMARK   3   BIN COMPLETENESS (WORKING+TEST) (%) : 34.25                        
REMARK   3   REFLECTIONS IN BIN   (WORKING+TEST) : 565                          
REMARK   3   BIN R VALUE          (WORKING+TEST) : 0.4888                       
REMARK   3   REFLECTIONS IN BIN    (WORKING SET) : 540                          
REMARK   3   BIN R VALUE           (WORKING SET) : 0.4828                       
REMARK   3   BIN FREE R VALUE                    : 0.6210                       
REMARK   3   BIN FREE R VALUE TEST SET SIZE  (%) : 4.42                         
REMARK   3   BIN FREE R VALUE TEST SET COUNT     : 25                           
REMARK   3   ESTIMATED ERROR OF BIN FREE R VALUE : NULL                         
REMARK   3                                                                      
REMARK   3  NUMBER OF NON-HYDROGEN ATOMS USED IN REFINEMENT.                    
REMARK   3   PROTEIN ATOMS            : 1476                                    
REMARK   3   NUCLEIC ACID ATOMS       : 0                                       
REMARK   3   HETEROGEN ATOMS          : 23                                      
REMARK   3   SOLVENT ATOMS            : 129                                     
REMARK   3                                                                      
REMARK   3  B VALUES.                                                           
REMARK   3   FROM WILSON PLOT           (A**2) : 33.90                          
REMARK   3   MEAN B VALUE      (OVERALL, A**2) : 53.39                          
REMARK   3   OVERALL ANISOTROPIC B VALUE.                                       
REMARK   3    B11 (A**2) : -4.42380                                             
REMARK   3    B22 (A**2) : -4.42380                                             
REMARK   3    B33 (A**2) : 8.84750                                              
REMARK   3    B12 (A**2) : 0.00000                                              
REMARK   3    B13 (A**2) : 0.00000                                              
REMARK   3    B23 (A**2) : 0.00000                                              
REMARK   3                                                                      
REMARK   3  ESTIMATED COORDINATE ERROR.                                         
REMARK   3   ESD FROM LUZZATI PLOT                    (A) : 0.32                
REMARK   3   DPI (BLOW EQ-10) BASED ON R VALUE        (A) : 0.112               
REMARK   3   DPI (BLOW EQ-9) BASED ON FREE R VALUE    (A) : 0.110               
REMARK   3   DPI (CRUICKSHANK) BASED ON R VALUE       (A) : 0.105               
REMARK   3   DPI (CRUICKSHANK) BASED ON FREE R VALUE  (A) : 0.105               
REMARK   3                                                                      
REMARK   3   REFERENCES: BLOW, D. (2002) ACTA CRYST D58, 792-797                
REMARK   3               CRUICKSHANK, D.W.J. (1999) ACTA CRYST D55, 583-601     
REMARK   3                                                                      
REMARK   3  CORRELATION COEFFICIENTS.                                           
REMARK   3   CORRELATION COEFFICIENT FO-FC      : 0.950                         
REMARK   3   CORRELATION COEFFICIENT FO-FC FREE : 0.932                         
REMARK   3                                                                      
REMARK   3  X-RAY WEIGHT : 7.09                                                 
REMARK   3                                                                      
REMARK   3  GEOMETRY FUNCTION.                                                  
REMARK   3   RESTRAINT LIBRARIES.                                               
REMARK   3    NUMBER OF LIBRARIES USED :   9                                    
REMARK   3    LIBRARY  1 : protgeo_eh99.dat (V1.6.4.20) 20220523  STANDARD      
REMARK   3                 AMINO ACID DICTIONARY. BONDS AND ANGLES FROM         
REMARK   3                 ENGH AND HUBER EH99. OTHER VALUES BASED ON           
REMARK   3                 PREVIOUS TNT OR TAKEN FROM CCP4. INCLUDES            
REMARK   3                 HYDROGEN ATOMS.                                      
REMARK   3    LIBRARY  2 : exoticaa.dat (V1.3.4.16) 20220523  COLLECTION        
REMARK   3                 OF NON-STANDARD AMINO ACIDS, MAINLY EH91             
REMARK   3                 WITHOUT IDEAL DISTANCE INFO                          
REMARK   3    LIBRARY  3 : nuclgeo.dat (V1.13.4.9) 20221011                     
REMARK   3    LIBRARY  4 : bcorrel.dat (V1.15.10.2) 20190616                    
REMARK   3    LIBRARY  5 : contact.dat (V1.15.12.10) 20191121                   
REMARK   3    LIBRARY  6 : idealdist_contact.dat (V1.3.4.13) 20220125           
REMARK   3                 IDEAL-DISTANCE CONTACT TERM DATA AS USED IN          
REMARK   3                 PROLSQ. VALUES USED HERE ARE BASED ON DATA           
REMARK   3                 HARVESTING OF PDB AS OF 20190109.                    
REMARK   3    LIBRARY  7 : restraints for LIG (unknown) from cif                
REMARK   3                 dictionary Z68299550.cif; generated by GRADE         
REMARK   3                 1.2.21 (Feb 03 2022) from SMILES                     
REMARK   3                 CC(C)(CO)NC(=O)c1cccc(Cl)c1 using MOGUL              
REMARK   3                 1.8.5(274361), CSD as541be, with quantum             
REMARK   3                 mechanics RM1                                        
REMARK   3    LIBRARY  8 : restraints for DMS (DIMETHYL SULFOXIDE) from         
REMARK   3                 cif dictionary DMS.cif; generated by grade2          
REMARK   3                 version 1.1.0a7 from                                 
REMARK   3                 PDB_chemical_components_definition_file              
REMARK   3                 ftp://ftp.ebi.ac.uk/pub/databases/msd/pdbechem_v     
REMARK   3                 2/D/DMS/DMS.cif using RDKit 2021.03.4                
REMARK   3                 ((DatabaseID PDB-DMS))                               
REMARK   3    LIBRARY  9 : assume.dat (V1.9.4.3) 20221011                       
REMARK   3                                                                      
REMARK   3   NUMBER OF GEOMETRIC FUNCTION TERMS DEFINED : 15                    
REMARK   3   TERM                          COUNT    WEIGHT   FUNCTION.          
REMARK   3    BOND LENGTHS              :   1624 ;   2.00 ;  HARMONIC           
REMARK   3    BOND ANGLES               :   2221 ;   2.00 ;  HARMONIC           
REMARK   3    TORSION ANGLES            :    548 ;   2.00 ;  SINUSOIDAL         
REMARK   3    TRIGONAL CARBON PLANES    :   NULL ;   NULL ;  NULL               
REMARK   3    GENERAL PLANES            :    288 ;   5.00 ;  HARMONIC           
REMARK   3    ISOTROPIC THERMAL FACTORS :   1609 ;  10.00 ;  HARMONIC           
REMARK   3    BAD NON-BONDED CONTACTS   :   NULL ;   NULL ;  NULL               
REMARK   3    IMPROPER TORSIONS         :   NULL ;   NULL ;  NULL               
REMARK   3    PSEUDOROTATION ANGLES     :   NULL ;   NULL ;  NULL               
REMARK   3    CHIRAL IMPROPER TORSION   :    204 ;   5.00 ;  SEMIHARMONIC       
REMARK   3    SUM OF OCCUPANCIES        :   NULL ;   NULL ;  NULL               
REMARK   3    UTILITY DISTANCES         :   NULL ;   NULL ;  NULL               
REMARK   3    UTILITY ANGLES            :   NULL ;   NULL ;  NULL               
REMARK   3    UTILITY TORSION           :   NULL ;   NULL ;  NULL               
REMARK   3    IDEAL-DIST CONTACT TERM   :   1320 ;   4.00 ;  SEMIHARMONIC       
REMARK   3                                                                      
REMARK   3   RMS DEVIATIONS FROM IDEAL VALUES.                                  
REMARK   3   BOND LENGTHS                       (A) : 0.011                     
REMARK   3   BOND ANGLES                  (DEGREES) : 1.06                      
REMARK   3   PEPTIDE OMEGA TORSION ANGLES (DEGREES) : 3.75                      
REMARK   3   OTHER TORSION ANGLES         (DEGREES) : 16.79                     
REMARK   3                                                                      
REMARK   3   SIMILARITY.                                                        
REMARK   3    NCS.                                                              
REMARK   3     NCS METHOD: NONE                                                 
REMARK   3    TARGET RESTRAINTS.                                                
REMARK   3     TARGET REPRESENTATION : NONE                                     
REMARK   3     TARGET STRUCTURE : NULL                                          
REMARK   3                                                                      
REMARK   3  TLS DETAILS.                                                        
REMARK   3   NUMBER OF TLS GROUPS  :            2                               
REMARK   3                                                                      
REMARK   3   TLS GROUP :            1                                           
REMARK   3    SET : { G|* }                                                     
REMARK   3    ORIGIN FOR THE GROUP (A):  -14.0358   -2.2125  -19.7383           
REMARK   3    T TENSOR                                                          
REMARK   3     T11:    0.0713 T22:    0.0102                                    
REMARK   3     T33:   -0.1722 T12:    0.2864                                    
REMARK   3     T13:    0.1700 T23:    0.1436                                    
REMARK   3    L TENSOR                                                          
REMARK   3     L11:    3.0883 L22:    3.4797                                    
REMARK   3     L33:    3.5767 L12:   -1.9081                                    
REMARK   3     L13:    0.3722 L23:   -0.0482                                    
REMARK   3    S TENSOR                                                          
REMARK   3     S11:    0.5626 S12:    0.4093 S13:    0.3623                     
REMARK   3     S21:   -0.5862 S22:   -0.5259 S23:   -0.2603                     
REMARK   3     S31:    0.0826 S32:    0.4296 S33:   -0.0367                     
REMARK   3                                                                      
REMARK   3   TLS GROUP :            2                                           
REMARK   3    SET : { H|* }                                                     
REMARK   3    ORIGIN FOR THE GROUP (A):  -18.4119    0.4852  -15.3838           
REMARK   3    T TENSOR                                                          
REMARK   3     T11:    0.1320 T22:    0.0711                                    
REMARK   3     T33:   -0.0154 T12:    0.2380                                    
REMARK   3     T13:    0.0949 T23:    0.0692                                    
REMARK   3    L TENSOR                                                          
REMARK   3     L11:    1.2476 L22:    1.2668                                    
REMARK   3     L33:    1.8943 L12:   -1.3243                                    
REMARK   3     L13:    0.9196 L23:   -0.5078                                    
REMARK   3    S TENSOR                                                          
REMARK   3     S11:    0.5060 S12:    0.2154 S13:    0.2591                     
REMARK   3     S21:   -0.2297 S22:   -0.5020 S23:    0.0000                     
REMARK   3     S31:    0.1640 S32:    0.2251 S33:   -0.0040                     
REMARK   3                                                                      
REMARK   3  REFINEMENT NOTES.                                                   
REMARK   3   NUMBER OF REFINEMENT NOTES :   1                                   
REMARK   3   NOTE   1 : IDEAL-DIST CONTACT TERM CONTACT SETUP. ALL ATOMS        
REMARK   3               HAVE CCP4 ATOM TYPE FROM LIBRARY                       
REMARK   3                                                                      
REMARK   3  OTHER REFINEMENT REMARKS: NULL                                      
REMARK   3                                                                      
REMARK 290                                                                      
REMARK 290 CRYSTALLOGRAPHIC SYMMETRY                                            
REMARK 290 SYMMETRY OPERATORS FOR SPACE GROUP: P 43 2 2                         
REMARK 290                                                                      
REMARK 290      SYMOP   SYMMETRY                                                
REMARK 290     NNNMMM   OPERATOR                                                
REMARK 290       1555   X,Y,Z                                                   
REMARK 290       2555   -X,-Y,1/2+Z                                             
REMARK 290       3555   -Y,X,3/4+Z                                              
REMARK 290       4555   Y,-X,1/4+Z                                              
REMARK 290       5555   -X,Y,-Z                                                 
REMARK 290       6555   X,-Y,1/2-Z                                              
REMARK 290       7555   Y,X,1/4-Z                                               
REMARK 290       8555   -Y,-X,3/4-Z                                             
REMARK 290                                                                      
REMARK 290     WHERE NNN -> OPERATOR NUMBER                                     
REMARK 290           MMM -> TRANSLATION VECTOR                                  
REMARK 290                                                                      
REMARK 290 CRYSTALLOGRAPHIC SYMMETRY TRANSFORMATIONS                            
REMARK 290 THE FOLLOWING TRANSFORMATIONS OPERATE ON THE ATOM/HETATM             
REMARK 290 RECORDS IN THIS ENTRY TO PRODUCE CRYSTALLOGRAPHICALLY                
REMARK 290 RELATED MOLECULES.                                                   
REMARK 290   SMTRY1   1  1.000000  0.000000  0.000000        0.00000            
REMARK 290   SMTRY2   1  0.000000  1.000000  0.000000        0.00000            
REMARK 290   SMTRY3   1  0.000000  0.000000  1.000000        0.00000            
REMARK 290   SMTRY1   2 -1.000000  0.000000  0.000000        0.00000            
REMARK 290   SMTRY2   2  0.000000 -1.000000  0.000000        0.00000            
REMARK 290   SMTRY3   2  0.000000  0.000000  1.000000      108.04100            
REMARK 290   SMTRY1   3  0.000000 -1.000000  0.000000        0.00000            
REMARK 290   SMTRY2   3  1.000000  0.000000  0.000000        0.00000            
REMARK 290   SMTRY3   3  0.000000  0.000000  1.000000      162.06150            
REMARK 290   SMTRY1   4  0.000000  1.000000  0.000000        0.00000            
REMARK 290   SMTRY2   4 -1.000000  0.000000  0.000000        0.00000            
REMARK 290   SMTRY3   4  0.000000  0.000000  1.000000       54.02050            
REMARK 290   SMTRY1   5 -1.000000  0.000000  0.000000        0.00000            
REMARK 290   SMTRY2   5  0.000000  1.000000  0.000000        0.00000            
REMARK 290   SMTRY3   5  0.000000  0.000000 -1.000000        0.00000            
REMARK 290   SMTRY1   6  1.000000  0.000000  0.000000        0.00000            
REMARK 290   SMTRY2   6  0.000000 -1.000000  0.000000        0.00000            
REMARK 290   SMTRY3   6  0.000000  0.000000 -1.000000      108.04100            
REMARK 290   SMTRY1   7  0.000000  1.000000  0.000000        0.00000            
REMARK 290   SMTRY2   7  1.000000  0.000000  0.000000        0.00000            
REMARK 290   SMTRY3   7  0.000000  0.000000 -1.000000       54.02050            
REMARK 290   SMTRY1   8  0.000000 -1.000000  0.000000        0.00000            
REMARK 290   SMTRY2   8 -1.000000  0.000000  0.000000        0.00000            
REMARK 290   SMTRY3   8  0.000000  0.000000 -1.000000      162.06150            
REMARK 290                                                                      
REMARK 290 REMARK: NULL                                                         
CRYST1   42.666   42.666  216.082  90.00  90.00  90.00 P 43 2 2                 


$$$$
Zx0101a_ligand
  PyMOL3.0          3D                             0

 15 15  0  0  0  0  0  0  0  0999 V2000
  -10.7680    3.7320  -18.5150 Cl  0  0  0  0  0  0  0  0  0  0  0  0
   -9.2890    4.1570  -17.6960 C   0  0  0  0  0  0  0  0  0  0  0  0
   -5.7920    5.1590  -19.8860 N   0  0  0  0  0  0  0  0  0  0  0  0
   -4.7590    5.6210  -17.9390 O   0  0  0  0  0  0  0  0  0  0  0  0
   -9.2610    4.1610  -16.3180 C   0  0  0  0  0  0  0  0  0  0  0  0
   -5.7740    5.6370  -22.9820 O   0  0  0  0  0  0  0  0  0  0  0  0
   -8.0980    4.5510  -15.6750 C   0  0  0  0  0  0  0  0  0  0  0  0
   -6.9830    4.9180  -16.4090 C   0  0  0  0  0  0  0  0  0  0  0  0
   -8.1880    4.5210  -18.4480 C   0  0  0  0  0  0  0  0  0  0  0  0
   -7.0170    4.9040  -17.8000 C   0  0  0  0  0  0  0  0  0  0  0  0
   -5.7650    5.2590  -18.5420 C   0  0  0  0  0  0  0  0  0  0  0  0
   -4.6580    5.4610  -20.7920 C   0  0  0  0  0  0  0  0  0  0  0  0
   -4.4360    6.9760  -20.8340 C   0  0  0  0  0  0  0  0  0  0  0  0
   -3.3830    4.7800  -20.3100 C   0  0  0  0  0  0  0  0  0  0  0  0
   -4.9090    4.8630  -22.1680 C   0  0  0  0  0  0  0  0  0  0  0  0
  1  2  1  0  0  0  0
  2  5  4  0  0  0  0
  2  9  4  0  0  0  0
  3 12  1  0  0  0  0
  5  7  4  0  0  0  0
  7  8  4  0  0  0  0
  8 10  4  0  0  0  0
  9 10  4  0  0  0  0
 10 11  1  0  0  0  0
  3 11  1  0  0  0  0
  4 11  2  0  0  0  0
 12 13  1  0  0  0  0
 12 14  1  0  0  0  0
 12 15  1  0  0  0  0
  6 15  1  0  0  0  0
M  END
>  <pdb_header>
COMPND    XX01ZVNS2B-x0101_B_301_XX01ZVNS2B-x1291+B+301+1


$$$$
Zx0130a
  PyMOL3.0          3D                             0

 17 18  0  0  0  0  0  0  0  0999 V2000
  -27.6630   -6.6360   -0.3990 N   0  0  0  0  0  0  0  0  0  0  0  0
  -28.2950   -7.1240    0.8520 C   0  0  0  0  0  0  0  0  0  0  0  0
  -26.3610   -4.0930   -4.1430 O   0  0  0  0  0  0  0  0  0  0  0  0
  -26.2260   -6.8980   -0.3860 C   0  0  0  0  0  0  0  0  0  0  0  0
  -26.1710   -5.4460   -2.3600 N   0  0  0  0  0  0  0  0  0  0  0  0
  -25.6230   -6.6670   -1.7460 C   0  0  0  0  0  0  0  0  0  0  0  0
  -26.8200   -4.5130   -1.4290 C   0  0  0  0  0  0  0  0  0  0  0  0
  -27.9380   -5.2060   -0.6060 C   0  0  0  0  0  0  0  0  0  0  0  0
  -26.0080   -5.1590   -3.6710 C   0  0  0  0  0  0  0  0  0  0  0  0
  -25.3130   -6.1600   -4.5430 C   0  0  0  0  0  0  0  0  0  0  0  0
  -26.0360   -7.2300   -5.0740 C   0  0  0  0  0  0  0  0  0  0  0  0
  -25.4610   -8.0830   -6.0050 C   0  0  0  0  0  0  0  0  0  0  0  0
  -24.1660   -7.8540   -6.4020 C   0  0  0  0  0  0  0  0  0  0  0  0
  -23.4420   -6.8120   -5.8750 C   0  0  0  0  0  0  0  0  0  0  0  0
  -23.9850   -5.9750   -4.9270 C   0  0  0  0  0  0  0  0  0  0  0  0
  -23.5950   -8.6380   -7.3530 F   0  0  0  0  0  0  0  0  0  0  0  0
  -22.2140   -6.5440   -6.3950 F   0  0  0  0  0  0  0  0  0  0  0  0
  1  2  1  0  0  0  0
  1  4  1  0  0  0  0
  5  6  1  0  0  0  0
  5  7  1  0  0  0  0
  4  6  1  0  0  0  0
  7  8  1  0  0  0  0
  1  8  1  0  0  0  0
  3  9  2  0  0  0  0
  5  9  1  0  0  0  0
  9 10  1  0  0  0  0
 10 11  4  0  0  0  0
 11 12  4  0  0  0  0
 12 13  4  0  0  0  0
 13 16  1  0  0  0  0
 13 14  4  0  0  0  0
 14 15  4  0  0  0  0
 10 15  4  0  0  0  0
 14 17  1  0  0  0  0
M  END
>  <pdb_header>
HEADER    ----                                    23-FEB-23                     
TITLE     ---                                                                   
EXPDTA    X-RAY DIFFRACTION                                                     
REMARK --------------------- added by autoBUSTER ---------------------------------START
REMARK run at   = Thu Aug 10 14:04:30 BST 2023
REMARK     in   = /dls/labxchem/data/lb32627/lb32627-65/processing/analysis/model_building/XX01ZVNS2B-x0130
REMARK     user = kyf22269
REMARK     cmd  = \
REMARK            /dls_sw/apps/GPhL/BUSTER/20230614/autoBUSTER/bin/linux64/refine \
REMARK            -p \
REMARK            /dls/labxchem/data/lb32627/lb32627-65/processing/analysis/model_building/XX01ZVNS2B-x0130/cootOut/Refi
REMARK            -m \
REMARK            /dls/labxchem/data/lb32627/lb32627-65/processing/analysis/model_building/XX01ZVNS2B-x0130/XX01ZVNS2B-x
REMARK            -l \
REMARK            /dls/labxchem/data/lb32627/lb32627-65/processing/analysis/model_building/XX01ZVNS2B-x0130/Z57122377.ci
REMARK            -autoncs -M TLSbasic -d Refine_19
REMARK Files used:
REMARK   PDB              = Refine_19/pdbchk.pdb
REMARK   MTZ              = /dls/labxchem/data/lb32627/lb32627-65/processing/analysis/model_building/XX01ZVNS2B-x0130/XX
REMARK output written to subdirectory = Refine_19
REMARK best refinement for F,SIGF with R/Rfree 0.2299/0.2542
REMARK header records are copied from input PDB file (apart from REMARK 3!)
REMARK --------------------- added by autoBUSTER -----------------------------------END
REMARK --------------------- added by autoBUSTER -------------------------------
REMARK run at   = Thu Aug 10 13:35:43 BST 2023                                  
REMARK     in   = /dls/labxchem/data/lb32627/lb32627-65/processing/analysis/mode
REMARK     user = kyf22269                                                      
REMARK     cmd  = \                                                             
REMARK            /dls_sw/apps/GPhL/BUSTER/20230614/autoBUSTER/bin/linux64/refin
REMARK            -p \                                                          
REMARK            /dls/labxchem/data/lb32627/lb32627-65/processing/analysis/mode
REMARK            -m \                                                          
REMARK            /dls/labxchem/data/lb32627/lb32627-65/processing/analysis/mode
REMARK            -l \                                                          
REMARK            /dls/labxchem/data/lb32627/lb32627-65/processing/analysis/mode
REMARK            -autoncs -M TLSbasic -d Refine_18                             
REMARK Files used:                                                              
REMARK   PDB              = Refine_18/pdbchk.pdb                                
REMARK   MTZ              = /dls/labxchem/data/lb32627/lb32627-65/processing/ana
REMARK output written to subdirectory = Refine_18                               
REMARK best refinement for F,SIGF with R/Rfree 0.2297/0.2554                    
REMARK header records are copied from input PDB file (apart from REMARK 3!)     
REMARK --------------------- added by autoBUSTER -------------------------------
REMARK --------------------- added by autoBUSTER -------------------------------
REMARK run at   = Thu Aug 10 10:40:10 BST 2023                                  
REMARK     in   = /dls/labxchem/data/lb32627/lb32627-65/processing/analysis/mode
REMARK     user = kyf22269                                                      
REMARK     cmd  = \                                                             
REMARK            /dls_sw/apps/GPhL/BUSTER/20230614/autoBUSTER/bin/linux64/refin
REMARK            -p \                                                          
REMARK            /dls/labxchem/data/lb32627/lb32627-65/processing/analysis/mode
REMARK            -m \                                                          
REMARK            /dls/labxchem/data/lb32627/lb32627-65/processing/analysis/mode
REMARK            -l \                                                          
REMARK            /dls/labxchem/data/lb32627/lb32627-65/processing/analysis/mode
REMARK            -autoncs -M TLSbasic -d Refine_17                             
REMARK Files used:                                                              
REMARK   PDB              = Refine_17/pdbchk.pdb                                
REMARK   MTZ              = /dls/labxchem/data/lb32627/lb32627-65/processing/ana
REMARK output written to subdirectory = Refine_17                               
REMARK best refinement for F,SIGF with R/Rfree 0.2288/0.2565                    
REMARK header records are copied from input PDB file (apart from REMARK 3!)     
REMARK --------------------- added by autoBUSTER -------------------------------
REMARK --------------------- added by autoBUSTER -------------------------------
REMARK run at   = Wed Aug  9 14:04:24 BST 2023                                  
REMARK     in   = /dls/labxchem/data/lb32627/lb32627-65/processing/analysis/mode
REMARK     user = kyf22269                                                      
REMARK     cmd  = \                                                             
REMARK            /dls_sw/apps/GPhL/BUSTER/20230614/autoBUSTER/bin/linux64/refin
REMARK            -p \                                                          
REMARK            /dls/labxchem/data/lb32627/lb32627-65/processing/analysis/mode
REMARK            -m \                                                          
REMARK            /dls/labxchem/data/lb32627/lb32627-65/processing/analysis/mode
REMARK            -l \                                                          
REMARK            /dls/labxchem/data/lb32627/lb32627-65/processing/analysis/mode
REMARK            -autoncs -M TLSbasic -d Refine_16                             
REMARK Files used:                                                              
REMARK   PDB              = Refine_16/pdbchk.pdb                                
REMARK   MTZ              = /dls/labxchem/data/lb32627/lb32627-65/processing/ana
REMARK output written to subdirectory = Refine_16                               
REMARK best refinement for F,SIGF with R/Rfree 0.2294/0.2538                    
REMARK header records are copied from input PDB file (apart from REMARK 3!)     
REMARK --------------------- added by autoBUSTER -------------------------------
REMARK --------------------- added by autoBUSTER -------------------------------
REMARK run at   = Wed Aug  9 10:05:46 BST 2023                                  
REMARK     in   = /dls/labxchem/data/lb32627/lb32627-65/processing/analysis/mode
REMARK     user = kyf22269                                                      
REMARK     cmd  = \                                                             
REMARK            /dls_sw/apps/GPhL/BUSTER/20230614/autoBUSTER/bin/linux64/refin
REMARK            -p \                                                          
REMARK            /dls/labxchem/data/lb32627/lb32627-65/processing/analysis/mode
REMARK            -m \                                                          
REMARK            /dls/labxchem/data/lb32627/lb32627-65/processing/analysis/mode
REMARK            -l \                                                          
REMARK            /dls/labxchem/data/lb32627/lb32627-65/processing/analysis/mode
REMARK            -autoncs -M TLSbasic -d Refine_15                             
REMARK Files used:                                                              
REMARK   PDB              = Refine_15/pdbchk.pdb                                
REMARK   MTZ              = /dls/labxchem/data/lb32627/lb32627-65/processing/ana
REMARK output written to subdirectory = Refine_15                               
REMARK best refinement for F,SIGF with R/Rfree 0.2322/0.2558                    
REMARK header records are copied from input PDB file (apart from REMARK 3!)     
REMARK --------------------- added by autoBUSTER -------------------------------
REMARK --------------------- added by autoBUSTER -------------------------------
REMARK run at   = Tue Aug  1 16:10:34 BST 2023                                  
REMARK     in   = /dls/labxchem/data/lb32627/lb32627-65/processing/analysis/mode
REMARK     user = kyf22269                                                      
REMARK     cmd  = \                                                             
REMARK            /dls_sw/apps/GPhL/BUSTER/20230614/autoBUSTER/bin/linux64/refin
REMARK            -p \                                                          
REMARK            /dls/labxchem/data/lb32627/lb32627-65/processing/analysis/mode
REMARK            -m \                                                          
REMARK            /dls/labxchem/data/lb32627/lb32627-65/processing/analysis/mode
REMARK            -l \                                                          
REMARK            /dls/labxchem/data/lb32627/lb32627-65/processing/analysis/mode
REMARK            -autoncs -M TLSbasic -d Refine_14                             
REMARK Files used:                                                              
REMARK   PDB              = Refine_14/pdbchk.pdb                                
REMARK   MTZ              = /dls/labxchem/data/lb32627/lb32627-65/processing/ana
REMARK output written to subdirectory = Refine_14                               
REMARK best refinement for F,SIGF with R/Rfree 0.2294/0.2549                    
REMARK header records are copied from input PDB file (apart from REMARK 3!)     
REMARK --------------------- added by autoBUSTER -------------------------------
REMARK --------------------- added by autoBUSTER -------------------------------
REMARK run at   = Tue Aug  1 13:24:05 BST 2023                                  
REMARK     in   = /dls/labxchem/data/lb32627/lb32627-65/processing/analysis/mode
REMARK     user = kyf22269                                                      
REMARK     cmd  = \                                                             
REMARK            /dls_sw/apps/GPhL/BUSTER/20230614/autoBUSTER/bin/linux64/refin
REMARK            -p \                                                          
REMARK            /dls/labxchem/data/lb32627/lb32627-65/processing/analysis/mode
REMARK            -m \                                                          
REMARK            /dls/labxchem/data/lb32627/lb32627-65/processing/analysis/mode
REMARK            -l \                                                          
REMARK            /dls/labxchem/data/lb32627/lb32627-65/processing/analysis/mode
REMARK            -autoncs -M TLSbasic -d Refine_13                             
REMARK Files used:                                                              
REMARK   PDB              = Refine_13/pdbchk.pdb                                
REMARK   MTZ              = /dls/labxchem/data/lb32627/lb32627-65/processing/ana
REMARK output written to subdirectory = Refine_13                               
REMARK best refinement for F,SIGF with R/Rfree 0.2297/0.2538                    
REMARK header records are copied from input PDB file (apart from REMARK 3!)     
REMARK --------------------- added by autoBUSTER -------------------------------
REMARK --------------------- added by autoBUSTER -------------------------------
REMARK run at   = Mon Jul 17 10:22:30 BST 2023                                  
REMARK     in   = /dls/labxchem/data/lb32627/lb32627-65/processing/analysis/mode
REMARK     user = kyf22269                                                      
REMARK     cmd  = \                                                             
REMARK            /dls_sw/apps/GPhL/BUSTER/20230614/autoBUSTER/bin/linux64/refin
REMARK            -p \                                                          
REMARK            /dls/labxchem/data/lb32627/lb32627-65/processing/analysis/mode
REMARK            -m \                                                          
REMARK            /dls/labxchem/data/lb32627/lb32627-65/processing/analysis/mode
REMARK            -l \                                                          
REMARK            /dls/labxchem/data/lb32627/lb32627-65/processing/analysis/mode
REMARK            -autoncs -M TLSbasic -d Refine_12                             
REMARK Files used:                                                              
REMARK   PDB              = Refine_12/pdbchk.pdb                                
REMARK   MTZ              = /dls/labxchem/data/lb32627/lb32627-65/processing/ana
REMARK output written to subdirectory = Refine_12                               
REMARK best refinement for F,SIGF with R/Rfree 0.2301/0.2529                    
REMARK header records are copied from input PDB file (apart from REMARK 3!)     
REMARK --------------------- added by autoBUSTER -------------------------------
REMARK --------------------- added by autoBUSTER -------------------------------
REMARK run at   = Thu Jul 13 15:00:38 BST 2023                                  
REMARK     in   = /dls/labxchem/data/lb32627/lb32627-65/processing/analysis/mode
REMARK     user = kyf22269                                                      
REMARK     cmd  = \                                                             
REMARK            /dls_sw/apps/GPhL/BUSTER/20230614/autoBUSTER/bin/linux64/refin
REMARK            -p \                                                          
REMARK            /dls/labxchem/data/lb32627/lb32627-65/processing/analysis/mode
REMARK            -m \                                                          
REMARK            /dls/labxchem/data/lb32627/lb32627-65/processing/analysis/mode
REMARK            -l \                                                          
REMARK            /dls/labxchem/data/lb32627/lb32627-65/processing/analysis/mode
REMARK            -autoncs -M TLSbasic -d Refine_11                             
REMARK Files used:                                                              
REMARK   PDB              = Refine_11/pdbchk.pdb                                
REMARK   MTZ              = /dls/labxchem/data/lb32627/lb32627-65/processing/ana
REMARK output written to subdirectory = Refine_11                               
REMARK best refinement for F,SIGF with R/Rfree 0.2308/0.2554                    
REMARK header records are copied from input PDB file (apart from REMARK 3!)     
REMARK --------------------- added by autoBUSTER -------------------------------
REMARK --------------------- added by autoBUSTER -------------------------------
REMARK run at   = Thu Jul  6 16:32:38 BST 2023                                  
REMARK     in   = /dls/labxchem/data/lb32627/lb32627-65/processing/analysis/mode
REMARK     user = kyf22269                                                      
REMARK     cmd  = \                                                             
REMARK            /dls_sw/apps/GPhL/BUSTER/20230614/autoBUSTER/bin/linux64/refin
REMARK            -p \                                                          
REMARK            /dls/labxchem/data/lb32627/lb32627-65/processing/analysis/mode
REMARK            -m \                                                          
REMARK            /dls/labxchem/data/lb32627/lb32627-65/processing/analysis/mode
REMARK            -l \                                                          
REMARK            /dls/labxchem/data/lb32627/lb32627-65/processing/analysis/mode
REMARK            -autoncs -M TLSbasic -d Refine_10                             
REMARK Files used:                                                              
REMARK   PDB              = Refine_10/pdbchk.pdb                                
REMARK   MTZ              = /dls/labxchem/data/lb32627/lb32627-65/processing/ana
REMARK output written to subdirectory = Refine_10                               
REMARK best refinement for F,SIGF with R/Rfree 0.2326/0.2607                    
REMARK header records are copied from input PDB file (apart from REMARK 3!)     
REMARK --------------------- added by autoBUSTER -------------------------------
REMARK --------------------- added by autoBUSTER -------------------------------
REMARK run at   = Thu Jul  6 14:33:16 BST 2023                                  
REMARK     in   = /dls/labxchem/data/lb32627/lb32627-65/processing/analysis/mode
REMARK     user = kyf22269                                                      
REMARK     cmd  = \                                                             
REMARK            /dls_sw/apps/GPhL/BUSTER/20230614/autoBUSTER/bin/linux64/refin
REMARK            -p \                                                          
REMARK            /dls/labxchem/data/lb32627/lb32627-65/processing/analysis/mode
REMARK            -m \                                                          
REMARK            /dls/labxchem/data/lb32627/lb32627-65/processing/analysis/mode
REMARK            -l \                                                          
REMARK            /dls/labxchem/data/lb32627/lb32627-65/processing/analysis/mode
REMARK            -autoncs -M TLSbasic -d Refine_9                              
REMARK Files used:                                                              
REMARK   PDB              = Refine_9/pdbchk.pdb                                 
REMARK   MTZ              = /dls/labxchem/data/lb32627/lb32627-65/processing/ana
REMARK output written to subdirectory = Refine_9                                
REMARK best refinement for F,SIGF with R/Rfree 0.2325/0.2620                    
REMARK header records are copied from input PDB file (apart from REMARK 3!)     
REMARK --------------------- added by autoBUSTER -------------------------------
REMARK --------------------- added by autoBUSTER -------------------------------
REMARK run at   = Wed Jul  5 17:34:38 BST 2023                                  
REMARK     in   = /dls/labxchem/data/lb32627/lb32627-65/processing/analysis/mode
REMARK     user = kyf22269                                                      
REMARK     cmd  = \                                                             
REMARK            /dls_sw/apps/GPhL/BUSTER/20230614/autoBUSTER/bin/linux64/refin
REMARK            -p \                                                          
REMARK            /dls/labxchem/data/lb32627/lb32627-65/processing/analysis/mode
REMARK            -m \                                                          
REMARK            /dls/labxchem/data/lb32627/lb32627-65/processing/analysis/mode
REMARK            -l \                                                          
REMARK            /dls/labxchem/data/lb32627/lb32627-65/processing/analysis/mode
REMARK            -autoncs -M TLSbasic -d Refine_8                              
REMARK Files used:                                                              
REMARK   PDB              = Refine_8/pdbchk.pdb                                 
REMARK   MTZ              = /dls/labxchem/data/lb32627/lb32627-65/processing/ana
REMARK output written to subdirectory = Refine_8                                
REMARK best refinement for F,SIGF with R/Rfree 0.2351/0.2572                    
REMARK header records are copied from input PDB file (apart from REMARK 3!)     
REMARK --------------------- added by autoBUSTER -------------------------------
REMARK --------------------- added by autoBUSTER -------------------------------
REMARK run at   = Wed Jul  5 16:48:55 BST 2023                                  
REMARK     in   = /dls/labxchem/data/lb32627/lb32627-65/processing/analysis/mode
REMARK     user = kyf22269                                                      
REMARK     cmd  = \                                                             
REMARK            /dls_sw/apps/GPhL/BUSTER/20230614/autoBUSTER/bin/linux64/refin
REMARK            -p \                                                          
REMARK            /dls/labxchem/data/lb32627/lb32627-65/processing/analysis/mode
REMARK            -m \                                                          
REMARK            /dls/labxchem/data/lb32627/lb32627-65/processing/analysis/mode
REMARK            -l \                                                          
REMARK            /dls/labxchem/data/lb32627/lb32627-65/processing/analysis/mode
REMARK            -autoncs -M TLSbasic -d Refine_7                              
REMARK Files used:                                                              
REMARK   PDB              = Refine_7/pdbchk.pdb                                 
REMARK   MTZ              = /dls/labxchem/data/lb32627/lb32627-65/processing/ana
REMARK output written to subdirectory = Refine_7                                
REMARK best refinement for F,SIGF with R/Rfree 0.2360/0.2599                    
REMARK header records are copied from input PDB file (apart from REMARK 3!)     
REMARK --------------------- added by autoBUSTER -------------------------------
REMARK --------------------- added by autoBUSTER -------------------------------
REMARK run at   = Fri Jun 30 16:35:14 BST 2023                                  
REMARK     in   = /dls/labxchem/data/lb32627/lb32627-65/processing/analysis/mode
REMARK     user = kyf22269                                                      
REMARK     cmd  = \                                                             
REMARK            /dls_sw/apps/GPhL/BUSTER/20230614/autoBUSTER/bin/linux64/refin
REMARK            -p \                                                          
REMARK            /dls/labxchem/data/lb32627/lb32627-65/processing/analysis/mode
REMARK            -m \                                                          
REMARK            /dls/labxchem/data/lb32627/lb32627-65/processing/analysis/mode
REMARK            -l \                                                          
REMARK            /dls/labxchem/data/lb32627/lb32627-65/processing/analysis/mode
REMARK            -autoncs -M TLSbasic -d Refine_6                              
REMARK Files used:                                                              
REMARK   PDB              = Refine_6/pdbchk.pdb                                 
REMARK   MTZ              = /dls/labxchem/data/lb32627/lb32627-65/processing/ana
REMARK output written to subdirectory = Refine_6                                
REMARK best refinement for F,SIGF with R/Rfree 0.2407/0.2635                    
REMARK header records are copied from input PDB file (apart from REMARK 3!)     
REMARK --------------------- added by autoBUSTER -------------------------------
REMARK   2                                                            
REMARK   2 RESOLUTION.    1.50 ANGSTROMS.
REMARK   3
REMARK   3 REFINEMENT.
REMARK   3   PROGRAM     : BUSTER 2.10.4 (14-JUN-2023)
REMARK   3   AUTHORS     : BRICOGNE,BLANC,BRANDL,FLENSBURG,KELLER,
REMARK   3               : PACIOREK,ROVERSI,SHARFF,SMART,VONRHEIN,WOMACK;
REMARK   3               : MATTHEWS,TEN EYCK,TRONRUD
REMARK   3
REMARK   3  DATA USED IN REFINEMENT.
REMARK   3   RESOLUTION RANGE HIGH (ANGSTROMS) : 1.505
REMARK   3   RESOLUTION RANGE LOW  (ANGSTROMS) : 54.19
REMARK   3   DATA CUTOFF            (SIGMA(F)) : 0.000
REMARK   3   COMPLETENESS FOR RANGE        (%) : 81.4
REMARK   3   NUMBER OF REFLECTIONS             : 27263
REMARK   3
REMARK   3  FIT TO DATA USED IN REFINEMENT.
REMARK   3   CROSS-VALIDATION METHOD          : THROUGHOUT
REMARK   3   FREE R VALUE TEST SET SELECTION  : RANDOM
REMARK   3   R VALUE     (WORKING + TEST SET) : 0.2311
REMARK   3   R VALUE            (WORKING SET) : 0.2299
REMARK   3   FREE R VALUE                     : 0.2542
REMARK   3   FREE R VALUE TEST SET SIZE   (%) : 5.090
REMARK   3   FREE R VALUE TEST SET COUNT      : 1387
REMARK   3   ESTIMATED ERROR OF FREE R VALUE  : NULL
REMARK   3
REMARK   3  FIT IN THE HIGHEST RESOLUTION BIN.
REMARK   3   TOTAL NUMBER OF BINS USED           : 51
REMARK   3   BIN RESOLUTION RANGE HIGH       (A) : 1.50
REMARK   3   BIN RESOLUTION RANGE LOW        (A) : 1.60
REMARK   3   BIN COMPLETENESS (WORKING+TEST) (%) : 10.24
REMARK   3   REFLECTIONS IN BIN   (WORKING+TEST) : 546
REMARK   3   BIN R VALUE          (WORKING+TEST) : 0.5660
REMARK   3   REFLECTIONS IN BIN    (WORKING SET) : 524
REMARK   3   BIN R VALUE           (WORKING SET) : 0.5678
REMARK   3   BIN FREE R VALUE                    : 0.5170
REMARK   3   BIN FREE R VALUE TEST SET SIZE  (%) : 4.03
REMARK   3   BIN FREE R VALUE TEST SET COUNT     : 22
REMARK   3   ESTIMATED ERROR OF BIN FREE R VALUE : NULL
REMARK   3
REMARK   3  NUMBER OF NON-HYDROGEN ATOMS USED IN REFINEMENT.
REMARK   3   PROTEIN ATOMS            : 1447
REMARK   3   NUCLEIC ACID ATOMS       : 0
REMARK   3   HETEROGEN ATOMS          : 53
REMARK   3   SOLVENT ATOMS            : 97
REMARK   3
REMARK   3  B VALUES.
REMARK   3   FROM WILSON PLOT           (A**2) : 30.81
REMARK   3   MEAN B VALUE      (OVERALL, A**2) : 51.72
REMARK   3   OVERALL ANISOTROPIC B VALUE.
REMARK   3    B11 (A**2) : -5.82020
REMARK   3    B22 (A**2) : -5.82020
REMARK   3    B33 (A**2) : 11.64050
REMARK   3    B12 (A**2) : 0.00000
REMARK   3    B13 (A**2) : 0.00000
REMARK   3    B23 (A**2) : 0.00000
REMARK   3
REMARK   3  ESTIMATED COORDINATE ERROR.
REMARK   3   ESD FROM LUZZATI PLOT                    (A) : 0.34
REMARK   3   DPI (BLOW EQ-10) BASED ON R VALUE        (A) : 0.108
REMARK   3   DPI (BLOW EQ-9) BASED ON FREE R VALUE    (A) : 0.103
REMARK   3   DPI (CRUICKSHANK) BASED ON R VALUE       (A) : 0.103
REMARK   3   DPI (CRUICKSHANK) BASED ON FREE R VALUE  (A) : 0.099
REMARK   3
REMARK   3   REFERENCES: BLOW, D. (2002) ACTA CRYST D58, 792-797
REMARK   3               CRUICKSHANK, D.W.J. (1999) ACTA CRYST D55, 583-601
REMARK   3
REMARK   3  CORRELATION COEFFICIENTS.
REMARK   3   CORRELATION COEFFICIENT FO-FC      : 0.947
REMARK   3   CORRELATION COEFFICIENT FO-FC FREE : 0.943
REMARK   3
REMARK   3  X-RAY WEIGHT : 5.92
REMARK   3
REMARK   3  GEOMETRY FUNCTION.                                                  
REMARK   3   RESTRAINT LIBRARIES.                                               
REMARK   3    NUMBER OF LIBRARIES USED :   9                                    
REMARK   3    LIBRARY  1 : protgeo_eh99.dat (V1.6.4.20) 20220523  STANDARD      
REMARK   3                 AMINO ACID DICTIONARY. BONDS AND ANGLES FROM         
REMARK   3                 ENGH AND HUBER EH99. OTHER VALUES BASED ON           
REMARK   3                 PREVIOUS TNT OR TAKEN FROM CCP4. INCLUDES            
REMARK   3                 HYDROGEN ATOMS.                                      
REMARK   3    LIBRARY  2 : exoticaa.dat (V1.3.4.16) 20220523  COLLECTION        
REMARK   3                 OF NON-STANDARD AMINO ACIDS, MAINLY EH91             
REMARK   3                 WITHOUT IDEAL DISTANCE INFO                          
REMARK   3    LIBRARY  3 : nuclgeo.dat (V1.13.4.9) 20221011                     
REMARK   3    LIBRARY  4 : bcorrel.dat (V1.15.10.2) 20190616                    
REMARK   3    LIBRARY  5 : contact.dat (V1.15.12.10) 20191121                   
REMARK   3    LIBRARY  6 : idealdist_contact.dat (V1.3.4.13) 20220125           
REMARK   3                 IDEAL-DISTANCE CONTACT TERM DATA AS USED IN          
REMARK   3                 PROLSQ. VALUES USED HERE ARE BASED ON DATA           
REMARK   3                 HARVESTING OF PDB AS OF 20190109.                    
REMARK   3    LIBRARY  7 : restraints for LIG (unknown) from cif                
REMARK   3                 dictionary Z57122377.cif; generated by GRADE         
REMARK   3                 1.2.21 (Feb 03 2022) from SMILES                     
REMARK   3                 CN1CCN(CC1)C(=O)c2ccc(F)c(F)c2 using MOGUL           
REMARK   3                 1.8.5(274361), CSD as541be, with quantum             
REMARK   3                 mechanics RM1                                        
REMARK   3    LIBRARY  8 : restraints for DMS (DIMETHYL SULFOXIDE) from         
REMARK   3                 cif dictionary DMS.cif; generated by grade2          
REMARK   3                 version 1.1.0a7 from                                 
REMARK   3                 PDB_chemical_components_definition_file              
REMARK   3                 ftp://ftp.ebi.ac.uk/pub/databases/msd/pdbechem_v     
REMARK   3                 2/D/DMS/DMS.cif using RDKit 2021.03.4                
REMARK   3                 ((DatabaseID PDB-DMS))                               
REMARK   3    LIBRARY  9 : assume.dat (V1.9.4.3) 20221011                       
REMARK   3                                                                      
REMARK   3   NUMBER OF GEOMETRIC FUNCTION TERMS DEFINED : 15                    
REMARK   3   TERM                          COUNT    WEIGHT   FUNCTION.          
REMARK   3    BOND LENGTHS              :   1539 ;   2.00 ;  HARMONIC           
REMARK   3    BOND ANGLES               :   2083 ;   2.00 ;  HARMONIC           
REMARK   3    TORSION ANGLES            :    515 ;   2.00 ;  SINUSOIDAL         
REMARK   3    TRIGONAL CARBON PLANES    :   NULL ;   NULL ;  NULL               
REMARK   3    GENERAL PLANES            :    268 ;   5.00 ;  HARMONIC           
REMARK   3    ISOTROPIC THERMAL FACTORS :   1539 ;  10.00 ;  HARMONIC           
REMARK   3    BAD NON-BONDED CONTACTS   :   NULL ;   NULL ;  NULL               
REMARK   3    IMPROPER TORSIONS         :   NULL ;   NULL ;  NULL               
REMARK   3    PSEUDOROTATION ANGLES     :   NULL ;   NULL ;  NULL               
REMARK   3    CHIRAL IMPROPER TORSION   :    188 ;   5.00 ;  SEMIHARMONIC       
REMARK   3    SUM OF OCCUPANCIES        :   NULL ;   NULL ;  NULL               
REMARK   3    UTILITY DISTANCES         :   NULL ;   NULL ;  NULL               
REMARK   3    UTILITY ANGLES            :   NULL ;   NULL ;  NULL               
REMARK   3    UTILITY TORSION           :   NULL ;   NULL ;  NULL               
REMARK   3    IDEAL-DIST CONTACT TERM   :   1198 ;   4.00 ;  SEMIHARMONIC       
REMARK   3                                                                      
REMARK   3   RMS DEVIATIONS FROM IDEAL VALUES.                                  
REMARK   3   BOND LENGTHS                       (A) : 0.010                     
REMARK   3   BOND ANGLES                  (DEGREES) : 1.03                      
REMARK   3   PEPTIDE OMEGA TORSION ANGLES (DEGREES) : 3.90                      
REMARK   3   OTHER TORSION ANGLES         (DEGREES) : 15.49                     
REMARK   3                                                                      
REMARK   3   SIMILARITY.                                                        
REMARK   3    NCS.                                                              
REMARK   3     NCS METHOD: NONE                                                 
REMARK   3    TARGET RESTRAINTS.                                                
REMARK   3     TARGET REPRESENTATION : NONE                                     
REMARK   3     TARGET STRUCTURE : NULL                                          
REMARK   3                                                                      
REMARK   3  TLS DETAILS.                                                        
REMARK   3   NUMBER OF TLS GROUPS  :            2                               
REMARK   3                                                                      
REMARK   3   TLS GROUP :            1                                           
REMARK   3    SET : { A|* }                                                     
REMARK   3    ORIGIN FOR THE GROUP (A):  -14.1304   -1.3507  -19.4644           
REMARK   3    T TENSOR                                                          
REMARK   3     T11:    0.0286 T22:   -0.0367                                    
REMARK   3     T33:   -0.1800 T12:    0.1785                                    
REMARK   3     T13:    0.1523 T23:    0.1187                                    
REMARK   3    L TENSOR                                                          
REMARK   3     L11:    2.7883 L22:    3.5749                                    
REMARK   3     L33:    3.7367 L12:   -1.6545                                    
REMARK   3     L13:    0.3011 L23:    0.4113                                    
REMARK   3    S TENSOR                                                          
REMARK   3     S11:    0.4855 S12:    0.4133 S13:    0.4373                     
REMARK   3     S21:   -0.6387 S22:   -0.4499 S23:   -0.3733                     
REMARK   3     S31:   -0.1481 S32:    0.5747 S33:   -0.0357                     
REMARK   3                                                                      
REMARK   3   TLS GROUP :            2                                           
REMARK   3    SET : { B|* }                                                     
REMARK   3    ORIGIN FOR THE GROUP (A):  -18.5782    0.8687  -15.6910           
REMARK   3    T TENSOR                                                          
REMARK   3     T11:    0.1128 T22:   -0.0223                                    
REMARK   3     T33:   -0.0016 T12:    0.1364                                    
REMARK   3     T13:    0.0649 T23:    0.0404                                    
REMARK   3    L TENSOR                                                          
REMARK   3     L11:    0.7560 L22:    1.1033                                    
REMARK   3     L33:    2.3161 L12:   -0.7112                                    
REMARK   3     L13:    0.5473 L23:   -0.2596                                    
REMARK   3    S TENSOR                                                          
REMARK   3     S11:    0.2851 S12:    0.1151 S13:    0.1165                     
REMARK   3     S21:   -0.2076 S22:   -0.2900 S23:    0.0425                     
REMARK   3     S31:   -0.0304 S32:    0.1897 S33:    0.0049                     
REMARK   3                                                                      
REMARK   3  REFINEMENT NOTES.                                                   
REMARK   3   NUMBER OF REFINEMENT NOTES :   1                                   
REMARK   3   NOTE   1 : IDEAL-DIST CONTACT TERM CONTACT SETUP. ALL ATOMS        
REMARK   3               HAVE CCP4 ATOM TYPE FROM LIBRARY                       
REMARK   3
REMARK   3  OTHER REFINEMENT REMARKS: NULL
REMARK   3
REMARK 290                                                            
REMARK 290 CRYSTALLOGRAPHIC SYMMETRY                                  
REMARK 290 SYMMETRY OPERATORS FOR SPACE GROUP: P 43 2 2               
REMARK 290                                                            
REMARK 290      SYMOP   SYMMETRY                                      
REMARK 290     NNNMMM   OPERATOR                                      
REMARK 290       1555   X,Y,Z                                         
REMARK 290       2555   -X,-Y,1/2+Z                                   
REMARK 290       3555   -Y,X,3/4+Z                                    
REMARK 290       4555   Y,-X,1/4+Z                                    
REMARK 290       5555   -X,Y,-Z                                       
REMARK 290       6555   X,-Y,1/2-Z                                    
REMARK 290       7555   Y,X,1/4-Z                                     
REMARK 290       8555   -Y,-X,3/4-Z                                   
REMARK 290                                                            
REMARK 290     WHERE NNN -> OPERATOR NUMBER                           
REMARK 290           MMM -> TRANSLATION VECTOR                        
REMARK 290                                                            
REMARK 290 CRYSTALLOGRAPHIC SYMMETRY TRANSFORMATIONS                  
REMARK 290 THE FOLLOWING TRANSFORMATIONS OPERATE ON THE ATOM/HETATM   
REMARK 290 RECORDS IN THIS ENTRY TO PRODUCE CRYSTALLOGRAPHICALLY      
REMARK 290 RELATED MOLECULES.                                         
REMARK 290   SMTRY1   1  1.000000  0.000000  0.000000        0.00000
REMARK 290   SMTRY2   1  0.000000  1.000000  0.000000        0.00000
REMARK 290   SMTRY3   1  0.000000  0.000000  1.000000        0.00000
REMARK 290   SMTRY1   2 -1.000000  0.000000  0.000000        0.00000
REMARK 290   SMTRY2   2  0.000000 -1.000000  0.000000        0.00000
REMARK 290   SMTRY3   2  0.000000  0.000000  1.000000      108.37050
REMARK 290   SMTRY1   3  0.000000 -1.000000  0.000000        0.00000
REMARK 290   SMTRY2   3  1.000000  0.000000  0.000000        0.00000
REMARK 290   SMTRY3   3  0.000000  0.000000  1.000000      162.55575
REMARK 290   SMTRY1   4  0.000000  1.000000  0.000000        0.00000
REMARK 290   SMTRY2   4 -1.000000  0.000000  0.000000        0.00000
REMARK 290   SMTRY3   4  0.000000  0.000000  1.000000       54.18525
REMARK 290   SMTRY1   5 -1.000000  0.000000  0.000000        0.00000
REMARK 290   SMTRY2   5  0.000000  1.000000  0.000000        0.00000
REMARK 290   SMTRY3   5  0.000000  0.000000 -1.000000        0.00000
REMARK 290   SMTRY1   6  1.000000  0.000000  0.000000        0.00000
REMARK 290   SMTRY2   6  0.000000 -1.000000  0.000000        0.00000
REMARK 290   SMTRY3   6  0.000000  0.000000 -1.000000      108.37050
REMARK 290   SMTRY1   7  0.000000  1.000000  0.000000        0.00000
REMARK 290   SMTRY2   7  1.000000  0.000000  0.000000        0.00000
REMARK 290   SMTRY3   7  0.000000  0.000000 -1.000000       54.18525
REMARK 290   SMTRY1   8  0.000000 -1.000000  0.000000        0.00000
REMARK 290   SMTRY2   8 -1.000000  0.000000  0.000000        0.00000
REMARK 290   SMTRY3   8  0.000000  0.000000 -1.000000      162.55575
REMARK 290                                                            
REMARK 290 REMARK: NULL                                               
CRYST1   42.877   42.877  216.741  90.00  90.00  90.00 P 43 2 2                 


$$$$
Zx0130a_ligand
  PyMOL3.0          3D                             0

 17 18  0  0  0  0  0  0  0  0999 V2000
  -23.4420   -6.8120   -5.8750 C   0  0  0  0  0  0  0  0  0  0  0  0
  -26.1710   -5.4460   -2.3600 N   0  0  0  0  0  0  0  0  0  0  0  0
  -26.3610   -4.0930   -4.1430 O   0  0  0  0  0  0  0  0  0  0  0  0
  -24.1660   -7.8540   -6.4020 C   0  0  0  0  0  0  0  0  0  0  0  0
  -27.6630   -6.6360   -0.3990 N   0  0  0  0  0  0  0  0  0  0  0  0
  -25.4610   -8.0830   -6.0050 C   0  0  0  0  0  0  0  0  0  0  0  0
  -26.0360   -7.2300   -5.0740 C   0  0  0  0  0  0  0  0  0  0  0  0
  -23.9850   -5.9750   -4.9270 C   0  0  0  0  0  0  0  0  0  0  0  0
  -25.3130   -6.1600   -4.5430 C   0  0  0  0  0  0  0  0  0  0  0  0
  -26.0080   -5.1590   -3.6710 C   0  0  0  0  0  0  0  0  0  0  0  0
  -25.6230   -6.6670   -1.7460 C   0  0  0  0  0  0  0  0  0  0  0  0
  -26.2260   -6.8980   -0.3860 C   0  0  0  0  0  0  0  0  0  0  0  0
  -26.8200   -4.5130   -1.4290 C   0  0  0  0  0  0  0  0  0  0  0  0
  -27.9380   -5.2060   -0.6060 C   0  0  0  0  0  0  0  0  0  0  0  0
  -28.2950   -7.1240    0.8520 C   0  0  0  0  0  0  0  0  0  0  0  0
  -22.2140   -6.5440   -6.3950 F   0  0  0  0  0  0  0  0  0  0  0  0
  -23.5950   -8.6380   -7.3530 F   0  0  0  0  0  0  0  0  0  0  0  0
  1  4  4  0  0  0  0
  1  8  4  0  0  0  0
  2 11  1  0  0  0  0
  2 13  1  0  0  0  0
  4  6  4  0  0  0  0
  4 17  1  0  0  0  0
  5 15  1  0  0  0  0
  6  7  4  0  0  0  0
  7  9  4  0  0  0  0
  8  9  4  0  0  0  0
  9 10  1  0  0  0  0
  2 10  1  0  0  0  0
  3 10  2  0  0  0  0
 11 12  1  0  0  0  0
  5 12  1  0  0  0  0
 13 14  1  0  0  0  0
  5 14  1  0  0  0  0
  1 16  1  0  0  0  0
M  END
>  <pdb_header>
COMPND    XX01ZVNS2B-x0130_B_204_XX01ZVNS2B-x0130+B+204+1


$$$$
Zx0227a
  PyMOL3.0          3D                             0

 13 14  0  0  0  0  0  0  0  0999 V2000
   -5.6700    5.1910  -20.1900 N   0  0  0  0  0  0  0  0  0  0  0  0
   -5.7460    6.2480  -19.1840 C   0  0  0  0  0  0  0  0  0  0  0  0
   -6.0600    5.6990  -17.7720 C   0  0  0  0  0  0  0  0  0  0  0  0
   -8.1280    4.8590  -18.7990 N   0  0  0  0  0  0  0  0  0  0  0  0
   -7.4710    5.1270  -17.6580 C   0  0  0  0  0  0  0  0  0  0  0  0
   -9.3680    4.3460  -18.7040 C   0  0  0  0  0  0  0  0  0  0  0  0
   -9.9890    4.0740  -17.5060 C   0  0  0  0  0  0  0  0  0  0  0  0
   -9.3030    4.3470  -16.3450 C   0  0  0  0  0  0  0  0  0  0  0  0
   -8.0290    4.8830  -16.4090 C   0  0  0  0  0  0  0  0  0  0  0  0
   -5.8630    6.8740  -16.7840 C   0  0  0  0  0  0  0  0  0  0  0  0
   -4.9430    6.3410  -15.6880 C   0  0  0  0  0  0  0  0  0  0  0  0
   -4.0820    5.3900  -16.3550 C   0  0  0  0  0  0  0  0  0  0  0  0
   -4.9740    4.6770  -17.3590 C   0  0  0  0  0  0  0  0  0  0  0  0
  1  2  1  0  0  0  0
  2  3  1  0  0  0  0
  3  5  1  0  0  0  0
  3 10  1  0  0  0  0
  3 13  1  0  0  0  0
  4  5  4  0  0  0  0
  5  9  4  0  0  0  0
  4  6  4  0  0  0  0
  6  7  4  0  0  0  0
  7  8  4  0  0  0  0
  8  9  4  0  0  0  0
 10 11  1  0  0  0  0
 11 12  1  0  0  0  0
 12 13  1  0  0  0  0
M  END
>  <pdb_header>
HEADER    ----                                    18-MAY-23                     
TITLE     ---                                                                   
EXPDTA    X-RAY DIFFRACTION                                                     
REMARK --------------------- added by autoBUSTER ---------------------------------START
REMARK run at   = Fri Oct 27 16:41:11 BST 2023
REMARK     in   = /dls/labxchem/data/lb32627/lb32627-65/processing/analysis/model_building/XX01ZVNS2B-x0227
REMARK     user = kyf22269
REMARK     cmd  = \
REMARK            /dls_sw/apps/GPhL/BUSTER/20230726/autoBUSTER/bin/linux64/refine \
REMARK            -p \
REMARK            /dls/labxchem/data/lb32627/lb32627-65/processing/analysis/model_building/XX01ZVNS2B-x0227/cootOut/Refi
REMARK            -m \
REMARK            /dls/labxchem/data/lb32627/lb32627-65/processing/analysis/model_building/XX01ZVNS2B-x0227/XX01ZVNS2B-x
REMARK            -l \
REMARK            /dls/labxchem/data/lb32627/lb32627-65/processing/analysis/model_building/XX01ZVNS2B-x0227/POB0075.cif 
REMARK            -autoncs -M TLSbasic -d Refine_10
REMARK Files used:
REMARK   PDB              = Refine_10/pdbchk.pdb
REMARK   MTZ              = /dls/labxchem/data/lb32627/lb32627-65/processing/analysis/model_building/XX01ZVNS2B-x0227/XX
REMARK output written to subdirectory = Refine_10
REMARK best refinement for F,SIGF with R/Rfree 0.2297/0.2745
REMARK header records are copied from input PDB file (apart from REMARK 3!)
REMARK --------------------- added by autoBUSTER -----------------------------------END
REMARK --------------------- added by autoBUSTER -------------------------------
REMARK run at   = Fri Sep 15 16:28:45 BST 2023                                  
REMARK     in   = /dls/labxchem/data/lb32627/lb32627-65/processing/analysis/mode
REMARK     user = kyf22269                                                      
REMARK     cmd  = \                                                             
REMARK            /dls_sw/apps/GPhL/BUSTER/20230726/autoBUSTER/bin/linux64/refin
REMARK            -p \                                                          
REMARK            /dls/labxchem/data/lb32627/lb32627-65/processing/analysis/mode
REMARK            -m \                                                          
REMARK            /dls/labxchem/data/lb32627/lb32627-65/processing/analysis/mode
REMARK            -l \                                                          
REMARK            /dls/labxchem/data/lb32627/lb32627-65/processing/analysis/mode
REMARK            -autoncs -M TLSbasic -d Refine_9                              
REMARK Files used:                                                              
REMARK   PDB              = Refine_9/pdbchk.pdb                                 
REMARK   MTZ              = /dls/labxchem/data/lb32627/lb32627-65/processing/ana
REMARK output written to subdirectory = Refine_9                                
REMARK best refinement for F,SIGF with R/Rfree 0.2298/0.2744                    
REMARK header records are copied from input PDB file (apart from REMARK 3!)     
REMARK --------------------- added by autoBUSTER -------------------------------
REMARK --------------------- added by autoBUSTER -------------------------------
REMARK run at   = Mon Sep  4 13:26:50 BST 2023                                  
REMARK     in   = /dls/labxchem/data/lb32627/lb32627-65/processing/analysis/mode
REMARK     user = kyf22269                                                      
REMARK     cmd  = \                                                             
REMARK            /dls_sw/apps/GPhL/BUSTER/20230726/autoBUSTER/bin/linux64/refin
REMARK            -p \                                                          
REMARK            /dls/labxchem/data/lb32627/lb32627-65/processing/analysis/mode
REMARK            -m \                                                          
REMARK            /dls/labxchem/data/lb32627/lb32627-65/processing/analysis/mode
REMARK            -l \                                                          
REMARK            /dls/labxchem/data/lb32627/lb32627-65/processing/analysis/mode
REMARK            -autoncs -M TLSbasic -d Refine_8                              
REMARK Files used:                                                              
REMARK   PDB              = Refine_8/pdbchk.pdb                                 
REMARK   MTZ              = /dls/labxchem/data/lb32627/lb32627-65/processing/ana
REMARK output written to subdirectory = Refine_8                                
REMARK best refinement for F,SIGF with R/Rfree 0.2284/0.2660                    
REMARK header records are copied from input PDB file (apart from REMARK 3!)     
REMARK --------------------- added by autoBUSTER -------------------------------
REMARK --------------------- added by autoBUSTER -------------------------------
REMARK run at   = Mon Jun 12 18:05:41 BST 2023                                  
REMARK     in   = /dls/labxchem/data/lb32627/lb32627-65/processing/analysis/mode
REMARK     user = xau79897                                                      
REMARK     cmd  = \                                                             
REMARK            /dls_sw/apps/GPhL/BUSTER/20230217/autoBUSTER/bin/linux64/refin
REMARK            -p \                                                          
REMARK            /dls/labxchem/data/lb32627/lb32627-65/processing/analysis/mode
REMARK            -m \                                                          
REMARK            /dls/labxchem/data/lb32627/lb32627-65/processing/analysis/mode
REMARK            -l \                                                          
REMARK            /dls/labxchem/data/lb32627/lb32627-65/processing/analysis/mode
REMARK            -autoncs -M TLSbasic -B user -Gelly gelly.dat \               
REMARK            StopOnGellySanityCheckError=no -d Refine_7                    
REMARK Files used:                                                              
REMARK   PDB              = Refine_7/pdbchk.pdb                                 
REMARK   MTZ              = /dls/labxchem/data/lb32627/lb32627-65/processing/ana
REMARK   Gelly commands       = /dls/labxchem/data/lb32627/lb32627-65/processing
REMARK output written to subdirectory = Refine_7                                
REMARK best refinement for F,SIGF with R/Rfree 0.2288/0.2664                    
REMARK header records are copied from input PDB file (apart from REMARK 3!)     
REMARK --------------------- added by autoBUSTER -------------------------------
REMARK --------------------- added by autoBUSTER -------------------------------
REMARK run at   = Wed May 24 20:02:40 BST 2023                                  
REMARK     in   = /dls/labxchem/data/lb32627/lb32627-65/processing/analysis/mode
REMARK     user = xau79897                                                      
REMARK     cmd  = \                                                             
REMARK            /dls_sw/apps/GPhL/BUSTER/20230217/autoBUSTER/bin/linux64/refin
REMARK            -p \                                                          
REMARK            /dls/labxchem/data/lb32627/lb32627-65/processing/analysis/mode
REMARK            -m \                                                          
REMARK            /dls/labxchem/data/lb32627/lb32627-65/processing/analysis/mode
REMARK            -l \                                                          
REMARK            /dls/labxchem/data/lb32627/lb32627-65/processing/analysis/mode
REMARK            -autoncs -M TLSbasic -WAT -B user -Gelly gelly.dat \          
REMARK            StopOnGellySanityCheckError=no -d Refine_6                    
REMARK Files used:                                                              
REMARK   PDB              = Refine_6/pdbchk.pdb                                 
REMARK   MTZ              = /dls/labxchem/data/lb32627/lb32627-65/processing/ana
REMARK   Gelly commands       = /dls/labxchem/data/lb32627/lb32627-65/processing
REMARK output written to subdirectory = Refine_6                                
REMARK best refinement for F,SIGF with R/Rfree 0.2282/0.2647                    
REMARK header records are copied from input PDB file (apart from REMARK 3!)     
REMARK --------------------- added by autoBUSTER -------------------------------
REMARK --------------------- added by autoBUSTER -------------------------------
REMARK run at   = Wed May 24 13:13:03 BST 2023                                  
REMARK     in   = /dls/labxchem/data/lb32627/lb32627-65/processing/analysis/mode
REMARK     user = xau79897                                                      
REMARK     cmd  = \                                                             
REMARK            /dls_sw/apps/GPhL/BUSTER/20230217/autoBUSTER/bin/linux64/refin
REMARK            -p \                                                          
REMARK            /dls/labxchem/data/lb32627/lb32627-65/processing/analysis/mode
REMARK            -m \                                                          
REMARK            /dls/labxchem/data/lb32627/lb32627-65/processing/analysis/mode
REMARK            -l \                                                          
REMARK            /dls/labxchem/data/lb32627/lb32627-65/processing/analysis/mode
REMARK            -autoncs -M TLSbasic -WAT -B user -Gelly gelly.dat \          
REMARK            StopOnGellySanityCheckError=no -d Refine_5                    
REMARK Files used:                                                              
REMARK   PDB              = Refine_5/pdbchk.pdb                                 
REMARK   MTZ              = /dls/labxchem/data/lb32627/lb32627-65/processing/ana
REMARK   Gelly commands       = /dls/labxchem/data/lb32627/lb32627-65/processing
REMARK output written to subdirectory = Refine_5                                
REMARK best refinement for F,SIGF with R/Rfree 0.2309/0.2723                    
REMARK header records are copied from input PDB file (apart from REMARK 3!)     
REMARK --------------------- added by autoBUSTER -------------------------------
REMARK --------------------- added by autoBUSTER -------------------------------
REMARK run at   = Tue May 23 20:22:20 BST 2023                                  
REMARK     in   = /dls/labxchem/data/lb32627/lb32627-65/processing/analysis/mode
REMARK     user = xau79897                                                      
REMARK     cmd  = \                                                             
REMARK            /dls_sw/apps/GPhL/BUSTER/20230217/autoBUSTER/bin/linux64/refin
REMARK            -p \                                                          
REMARK            /dls/labxchem/data/lb32627/lb32627-65/processing/analysis/mode
REMARK            -m \                                                          
REMARK            /dls/labxchem/data/lb32627/lb32627-65/processing/analysis/mode
REMARK            -l \                                                          
REMARK            /dls/labxchem/data/lb32627/lb32627-65/processing/analysis/mode
REMARK            -autoncs -M TLSbasic -WAT -B user -Gelly gelly.dat \          
REMARK            StopOnGellySanityCheckError=no -d Refine_4                    
REMARK Files used:                                                              
REMARK   PDB              = Refine_4/pdbchk.pdb                                 
REMARK   MTZ              = /dls/labxchem/data/lb32627/lb32627-65/processing/ana
REMARK   Gelly commands       = /dls/labxchem/data/lb32627/lb32627-65/processing
REMARK output written to subdirectory = Refine_4                                
REMARK best refinement for F,SIGF with R/Rfree 0.2304/0.2685                    
REMARK header records are copied from input PDB file (apart from REMARK 3!)     
REMARK --------------------- added by autoBUSTER -------------------------------
REMARK --------------------- added by autoBUSTER -------------------------------
REMARK run at   = Tue May 23 17:01:04 BST 2023                                  
REMARK     in   = /dls/labxchem/data/lb32627/lb32627-65/processing/analysis/mode
REMARK     user = xau79897                                                      
REMARK     cmd  = \                                                             
REMARK            /dls_sw/apps/GPhL/BUSTER/20230217/autoBUSTER/bin/linux64/refin
REMARK            -p \                                                          
REMARK            /dls/labxchem/data/lb32627/lb32627-65/processing/analysis/mode
REMARK            -m \                                                          
REMARK            /dls/labxchem/data/lb32627/lb32627-65/processing/analysis/mode
REMARK            -l \                                                          
REMARK            /dls/labxchem/data/lb32627/lb32627-65/processing/analysis/mode
REMARK            -autoncs -M TLSbasic -d Refine_3                              
REMARK Files used:                                                              
REMARK   PDB              = Refine_3/pdbchk.pdb                                 
REMARK   MTZ              = /dls/labxchem/data/lb32627/lb32627-65/processing/ana
REMARK output written to subdirectory = Refine_3                                
REMARK best refinement for F,SIGF with R/Rfree 0.2403/0.2743                    
REMARK header records are copied from input PDB file (apart from REMARK 3!)     
REMARK --------------------- added by autoBUSTER -------------------------------
REMARK   2                                                            
REMARK   2 RESOLUTION.    1.61 ANGSTROMS.
REMARK   3
REMARK   3 REFINEMENT.
REMARK   3   PROGRAM     : BUSTER 2.10.4 (26-JUL-2023)
REMARK   3   AUTHORS     : BRICOGNE,BLANC,BRANDL,FLENSBURG,KELLER,
REMARK   3               : PACIOREK,ROVERSI,SHARFF,SMART,VONRHEIN,WOMACK;
REMARK   3               : MATTHEWS,TEN EYCK,TRONRUD
REMARK   3
REMARK   3  DATA USED IN REFINEMENT.
REMARK   3   RESOLUTION RANGE HIGH (ANGSTROMS) : 1.609
REMARK   3   RESOLUTION RANGE LOW  (ANGSTROMS) : 23.10
REMARK   3   DATA CUTOFF            (SIGMA(F)) : 0.000
REMARK   3   COMPLETENESS FOR RANGE        (%) : 86.6
REMARK   3   NUMBER OF REFLECTIONS             : 23414
REMARK   3
REMARK   3  FIT TO DATA USED IN REFINEMENT.
REMARK   3   CROSS-VALIDATION METHOD          : THROUGHOUT
REMARK   3   FREE R VALUE TEST SET SELECTION  : RANDOM
REMARK   3   R VALUE     (WORKING + TEST SET) : 0.2320
REMARK   3   R VALUE            (WORKING SET) : 0.2297
REMARK   3   FREE R VALUE                     : 0.2745
REMARK   3   FREE R VALUE TEST SET SIZE   (%) : 5.080
REMARK   3   FREE R VALUE TEST SET COUNT      : 1189
REMARK   3   ESTIMATED ERROR OF FREE R VALUE  : NULL
REMARK   3
REMARK   3  FIT IN THE HIGHEST RESOLUTION BIN.
REMARK   3   TOTAL NUMBER OF BINS USED           : 51
REMARK   3   BIN RESOLUTION RANGE HIGH       (A) : 1.61
REMARK   3   BIN RESOLUTION RANGE LOW        (A) : 1.69
REMARK   3   BIN COMPLETENESS (WORKING+TEST) (%) : 13.71
REMARK   3   REFLECTIONS IN BIN   (WORKING+TEST) : 469
REMARK   3   BIN R VALUE          (WORKING+TEST) : 0.5545
REMARK   3   REFLECTIONS IN BIN    (WORKING SET) : 447
REMARK   3   BIN R VALUE           (WORKING SET) : 0.5545
REMARK   3   BIN FREE R VALUE                    : 0.5539
REMARK   3   BIN FREE R VALUE TEST SET SIZE  (%) : 4.69
REMARK   3   BIN FREE R VALUE TEST SET COUNT     : 22
REMARK   3   ESTIMATED ERROR OF BIN FREE R VALUE : NULL
REMARK   3
REMARK   3  NUMBER OF NON-HYDROGEN ATOMS USED IN REFINEMENT.
REMARK   3   PROTEIN ATOMS            : 1476
REMARK   3   NUCLEIC ACID ATOMS       : 0
REMARK   3   HETEROGEN ATOMS          : 21
REMARK   3   SOLVENT ATOMS            : 138
REMARK   3
REMARK   3  B VALUES.
REMARK   3   FROM WILSON PLOT           (A**2) : 33.11
REMARK   3   MEAN B VALUE      (OVERALL, A**2) : 47.85
REMARK   3   OVERALL ANISOTROPIC B VALUE.
REMARK   3    B11 (A**2) : -7.75730
REMARK   3    B22 (A**2) : -7.75730
REMARK   3    B33 (A**2) : 15.51460
REMARK   3    B12 (A**2) : 0.00000
REMARK   3    B13 (A**2) : 0.00000
REMARK   3    B23 (A**2) : 0.00000
REMARK   3
REMARK   3  ESTIMATED COORDINATE ERROR.
REMARK   3   ESD FROM LUZZATI PLOT                    (A) : 0.33
REMARK   3   DPI (BLOW EQ-10) BASED ON R VALUE        (A) : 0.134
REMARK   3   DPI (BLOW EQ-9) BASED ON FREE R VALUE    (A) : 0.131
REMARK   3   DPI (CRUICKSHANK) BASED ON R VALUE       (A) : 0.124
REMARK   3   DPI (CRUICKSHANK) BASED ON FREE R VALUE  (A) : 0.124
REMARK   3
REMARK   3   REFERENCES: BLOW, D. (2002) ACTA CRYST D58, 792-797
REMARK   3               CRUICKSHANK, D.W.J. (1999) ACTA CRYST D55, 583-601
REMARK   3
REMARK   3  CORRELATION COEFFICIENTS.
REMARK   3   CORRELATION COEFFICIENT FO-FC      : 0.940
REMARK   3   CORRELATION COEFFICIENT FO-FC FREE : 0.918
REMARK   3
REMARK   3  X-RAY WEIGHT : 6.32
REMARK   3
REMARK   3  GEOMETRY FUNCTION.                                                  
REMARK   3   RESTRAINT LIBRARIES.                                               
REMARK   3    NUMBER OF LIBRARIES USED :   9                                    
REMARK   3    LIBRARY  1 : protgeo_eh99.dat (V1.6.4.20) 20220523  STANDARD      
REMARK   3                 AMINO ACID DICTIONARY. BONDS AND ANGLES FROM         
REMARK   3                 ENGH AND HUBER EH99. OTHER VALUES BASED ON           
REMARK   3                 PREVIOUS TNT OR TAKEN FROM CCP4. INCLUDES            
REMARK   3                 HYDROGEN ATOMS.                                      
REMARK   3    LIBRARY  2 : exoticaa.dat (V1.3.4.16) 20220523  COLLECTION        
REMARK   3                 OF NON-STANDARD AMINO ACIDS, MAINLY EH91             
REMARK   3                 WITHOUT IDEAL DISTANCE INFO                          
REMARK   3    LIBRARY  3 : nuclgeo.dat (V1.13.4.9) 20221011                     
REMARK   3    LIBRARY  4 : bcorrel.dat (V1.15.10.2) 20190616                    
REMARK   3    LIBRARY  5 : contact.dat (V1.15.12.10) 20191121                   
REMARK   3    LIBRARY  6 : idealdist_contact.dat (V1.3.4.14) 20230724           
REMARK   3                 IDEAL-DISTANCE CONTACT TERM DATA AS USED IN          
REMARK   3                 PROLSQ. VALUES USED HERE ARE BASEd ON DATA           
REMARK   3                 HARVESTING OF PDB AS OF 20190109                     
REMARK   3    LIBRARY  7 : restraints for LIG (unknown) from cif                
REMARK   3                 dictionary POB0075.cif; generated by GRADE           
REMARK   3                 1.2.21 (Feb 03 2022) from SMILES                     
REMARK   3                 NCC1(C2=NC=CC=C2)CCCC1 using MOGUL                   
REMARK   3                 1.8.5(274361), CSD as541be, with quantum             
REMARK   3                 mechanics RM1                                        
REMARK   3    LIBRARY  8 : restraints for DMS (DIMETHYL SULFOXIDE) from         
REMARK   3                 cif dictionary DMS.cif; generated by grade2          
REMARK   3                 version 1.1.0a7 from                                 
REMARK   3                 PDB_chemical_components_definition_file              
REMARK   3                 ftp://ftp.ebi.ac.uk/pub/databases/msd/pdbechem_v     
REMARK   3                 2/D/DMS/DMS.cif using RDKit 2021.03.4                
REMARK   3                 ((DatabaseID PDB-DMS))                               
REMARK   3    LIBRARY  9 : assume.dat (V1.9.4.3) 20221011                       
REMARK   3                                                                      
REMARK   3   NUMBER OF GEOMETRIC FUNCTION TERMS DEFINED : 15                    
REMARK   3   TERM                          COUNT    WEIGHT   FUNCTION.          
REMARK   3    BOND LENGTHS              :   1599 ;   2.00 ;  HARMONIC           
REMARK   3    BOND ANGLES               :   2180 ;   2.00 ;  HARMONIC           
REMARK   3    TORSION ANGLES            :    542 ;   2.00 ;  SINUSOIDAL         
REMARK   3    TRIGONAL CARBON PLANES    :   NULL ;   NULL ;  NULL               
REMARK   3    GENERAL PLANES            :    279 ;   5.00 ;  HARMONIC           
REMARK   3    ISOTROPIC THERMAL FACTORS :   1599 ;  10.00 ;  HARMONIC           
REMARK   3    BAD NON-BONDED CONTACTS   :   NULL ;   NULL ;  NULL               
REMARK   3    IMPROPER TORSIONS         :   NULL ;   NULL ;  NULL               
REMARK   3    PSEUDOROTATION ANGLES     :   NULL ;   NULL ;  NULL               
REMARK   3    CHIRAL IMPROPER TORSION   :    197 ;   5.00 ;  SEMIHARMONIC       
REMARK   3    SUM OF OCCUPANCIES        :   NULL ;   NULL ;  NULL               
REMARK   3    UTILITY DISTANCES         :   NULL ;   NULL ;  NULL               
REMARK   3    UTILITY ANGLES            :   NULL ;   NULL ;  NULL               
REMARK   3    UTILITY TORSION           :   NULL ;   NULL ;  NULL               
REMARK   3    IDEAL-DIST CONTACT TERM   :   1321 ;   4.00 ;  SEMIHARMONIC       
REMARK   3                                                                      
REMARK   3   RMS DEVIATIONS FROM IDEAL VALUES.                                  
REMARK   3   BOND LENGTHS                       (A) : 0.010                     
REMARK   3   BOND ANGLES                  (DEGREES) : 1.01                      
REMARK   3   PEPTIDE OMEGA TORSION ANGLES (DEGREES) : 3.88                      
REMARK   3   OTHER TORSION ANGLES         (DEGREES) : 16.07                     
REMARK   3                                                                      
REMARK   3   SIMILARITY.                                                        
REMARK   3    NCS.                                                              
REMARK   3     NCS METHOD: NONE                                                 
REMARK   3    TARGET RESTRAINTS.                                                
REMARK   3     TARGET REPRESENTATION : NONE                                     
REMARK   3     TARGET STRUCTURE : NULL                                          
REMARK   3                                                                      
REMARK   3  TLS DETAILS.                                                        
REMARK   3   NUMBER OF TLS GROUPS  :            2                               
REMARK   3                                                                      
REMARK   3   TLS GROUP :            1                                           
REMARK   3    SET : { A|* }                                                     
REMARK   3    ORIGIN FOR THE GROUP (A):  -13.9681   -1.2918  -19.5492           
REMARK   3    T TENSOR                                                          
REMARK   3     T11:   -0.0860 T22:   -0.1243                                    
REMARK   3     T33:   -0.1107 T12:    0.0177                                    
REMARK   3     T13:    0.0778 T23:    0.0517                                    
REMARK   3    L TENSOR                                                          
REMARK   3     L11:    2.7651 L22:    3.2364                                    
REMARK   3     L33:    3.2345 L12:   -1.2858                                    
REMARK   3     L13:    0.5699 L23:    0.8456                                    
REMARK   3    S TENSOR                                                          
REMARK   3     S11:    0.2042 S12:    0.2003 S13:    0.0885                     
REMARK   3     S21:   -0.3951 S22:   -0.0680 S23:   -0.1390                     
REMARK   3     S31:   -0.1069 S32:    0.3917 S33:   -0.1362                     
REMARK   3                                                                      
REMARK   3   TLS GROUP :            2                                           
REMARK   3    SET : { B|* }                                                     
REMARK   3    ORIGIN FOR THE GROUP (A):  -18.5796    1.3572  -15.4673           
REMARK   3    T TENSOR                                                          
REMARK   3     T11:    0.0144 T22:   -0.0729                                    
REMARK   3     T33:    0.0188 T12:    0.0675                                    
REMARK   3     T13:    0.0151 T23:    0.0140                                    
REMARK   3    L TENSOR                                                          
REMARK   3     L11:    0.9849 L22:    1.1894                                    
REMARK   3     L33:    1.9190 L12:   -0.6797                                    
REMARK   3     L13:    0.5385 L23:    0.1270                                    
REMARK   3    S TENSOR                                                          
REMARK   3     S11:    0.1366 S12:    0.0476 S13:    0.0668                     
REMARK   3     S21:   -0.1188 S22:   -0.1215 S23:    0.0361                     
REMARK   3     S31:   -0.0066 S32:    0.1259 S33:   -0.0151                     
REMARK   3                                                                      
REMARK   3  REFINEMENT NOTES.                                                   
REMARK   3   NUMBER OF REFINEMENT NOTES :   1                                   
REMARK   3   NOTE   1 : IDEAL-DIST CONTACT TERM CONTACT SETUP. ALL ATOMS        
REMARK   3               HAVE CCP4 ATOM TYPE FROM LIBRARY                       
REMARK   3
REMARK   3  OTHER REFINEMENT REMARKS: NULL
REMARK   3
REMARK 290                                                            
REMARK 290 CRYSTALLOGRAPHIC SYMMETRY                                  
REMARK 290 SYMMETRY OPERATORS FOR SPACE GROUP: P 43 2 2               
REMARK 290                                                            
REMARK 290      SYMOP   SYMMETRY                                      
REMARK 290     NNNMMM   OPERATOR                                      
REMARK 290       1555   X,Y,Z                                         
REMARK 290       2555   -X,-Y,1/2+Z                                   
REMARK 290       3555   -Y,X,3/4+Z                                    
REMARK 290       4555   Y,-X,1/4+Z                                    
REMARK 290       5555   -X,Y,-Z                                       
REMARK 290       6555   X,-Y,1/2-Z                                    
REMARK 290       7555   Y,X,1/4-Z                                     
REMARK 290       8555   -Y,-X,3/4-Z                                   
REMARK 290                                                            
REMARK 290     WHERE NNN -> OPERATOR NUMBER                           
REMARK 290           MMM -> TRANSLATION VECTOR                        
REMARK 290                                                            
REMARK 290 CRYSTALLOGRAPHIC SYMMETRY TRANSFORMATIONS                  
REMARK 290 THE FOLLOWING TRANSFORMATIONS OPERATE ON THE ATOM/HETATM   
REMARK 290 RECORDS IN THIS ENTRY TO PRODUCE CRYSTALLOGRAPHICALLY      
REMARK 290 RELATED MOLECULES.                                         
REMARK 290   SMTRY1   1  1.000000  0.000000  0.000000        0.00000
REMARK 290   SMTRY2   1  0.000000  1.000000  0.000000        0.00000
REMARK 290   SMTRY3   1  0.000000  0.000000  1.000000        0.00000
REMARK 290   SMTRY1   2 -1.000000  0.000000  0.000000        0.00000
REMARK 290   SMTRY2   2  0.000000 -1.000000  0.000000        0.00000
REMARK 290   SMTRY3   2  0.000000  0.000000  1.000000      108.79700
REMARK 290   SMTRY1   3  0.000000 -1.000000  0.000000        0.00000
REMARK 290   SMTRY2   3  1.000000  0.000000  0.000000        0.00000
REMARK 290   SMTRY3   3  0.000000  0.000000  1.000000      163.19550
REMARK 290   SMTRY1   4  0.000000  1.000000  0.000000        0.00000
REMARK 290   SMTRY2   4 -1.000000  0.000000  0.000000        0.00000
REMARK 290   SMTRY3   4  0.000000  0.000000  1.000000       54.39850
REMARK 290   SMTRY1   5 -1.000000  0.000000  0.000000        0.00000
REMARK 290   SMTRY2   5  0.000000  1.000000  0.000000        0.00000
REMARK 290   SMTRY3   5  0.000000  0.000000 -1.000000        0.00000
REMARK 290   SMTRY1   6  1.000000  0.000000  0.000000        0.00000
REMARK 290   SMTRY2   6  0.000000 -1.000000  0.000000        0.00000
REMARK 290   SMTRY3   6  0.000000  0.000000 -1.000000      108.79700
REMARK 290   SMTRY1   7  0.000000  1.000000  0.000000        0.00000
REMARK 290   SMTRY2   7  1.000000  0.000000  0.000000        0.00000
REMARK 290   SMTRY3   7  0.000000  0.000000 -1.000000       54.39850
REMARK 290   SMTRY1   8  0.000000 -1.000000  0.000000        0.00000
REMARK 290   SMTRY2   8 -1.000000  0.000000  0.000000        0.00000
REMARK 290   SMTRY3   8  0.000000  0.000000 -1.000000      163.19550
REMARK 290                                                            
REMARK 290 REMARK: NULL                                               
CRYST1   42.380   42.380  217.594  90.00  90.00  90.00 P 43 2 2                 


$$$$
Zx0227a_ligand
  PyMOL3.0          3D                             0

 13 14  0  0  0  0  0  0  0  0999 V2000
   -5.7460    6.2480  -19.1840 C   0  0  0  0  0  0  0  0  0  0  0  0
   -5.6700    5.1910  -20.1900 N   0  0  0  0  0  0  0  0  0  0  0  0
   -6.0600    5.6990  -17.7720 C   0  0  0  0  0  0  0  0  0  0  0  0
   -8.1280    4.8590  -18.7990 N   0  0  0  0  0  0  0  0  0  0  0  0
   -4.9740    4.6770  -17.3590 C   0  0  0  0  0  0  0  0  0  0  0  0
   -4.0820    5.3900  -16.3550 C   0  0  0  0  0  0  0  0  0  0  0  0
   -4.9430    6.3410  -15.6880 C   0  0  0  0  0  0  0  0  0  0  0  0
   -5.8630    6.8740  -16.7840 C   0  0  0  0  0  0  0  0  0  0  0  0
   -7.4710    5.1270  -17.6580 C   0  0  0  0  0  0  0  0  0  0  0  0
   -8.0290    4.8830  -16.4090 C   0  0  0  0  0  0  0  0  0  0  0  0
   -9.3030    4.3470  -16.3450 C   0  0  0  0  0  0  0  0  0  0  0  0
   -9.9890    4.0740  -17.5060 C   0  0  0  0  0  0  0  0  0  0  0  0
   -9.3680    4.3460  -18.7040 C   0  0  0  0  0  0  0  0  0  0  0  0
  1  3  1  0  0  0  0
  1  2  1  0  0  0  0
  3  5  1  0  0  0  0
  3  8  1  0  0  0  0
  3  9  1  0  0  0  0
  5  6  1  0  0  0  0
  6  7  1  0  0  0  0
  7  8  1  0  0  0  0
  4  9  4  0  0  0  0
  9 10  4  0  0  0  0
 10 11  4  0  0  0  0
 11 12  4  0  0  0  0
 12 13  4  0  0  0  0
  4 13  4  0  0  0  0
M  END
>  <pdb_header>
COMPND    XX01ZVNS2B-x0227_B_301_XX01ZVNS2B-x1291+B+301+1


$$$$
Zx0229a
  PyMOL3.0          3D                             0

 30 34  0  0  0  0  0  0  0  0999 V2000
   -5.9700    5.1790  -16.6360 N   0  0  0  0  0  0  0  0  0  0  0  0
   -5.0740    5.3820  -17.6180 C   0  0  0  0  0  0  0  0  0  0  0  0
   -3.8820    5.1330  -17.4830 O   0  0  0  0  0  0  0  0  0  0  0  0
   -7.3370    4.9910  -16.8470 C   0  0  0  0  0  0  0  0  0  0  0  0
   -4.6080    5.6000  -20.0470 N   0  0  0  0  0  0  0  0  0  0  0  0
   -7.8070    4.8390  -18.1600 C   0  0  0  0  0  0  0  0  0  0  0  0
   -9.1580    4.5710  -18.3570 C   0  0  0  0  0  0  0  0  0  0  0  0
  -10.0130    4.4320  -17.2810 C   0  0  0  0  0  0  0  0  0  0  0  0
   -9.5430    4.5920  -15.9890 C   0  0  0  0  0  0  0  0  0  0  0  0
   -8.2110    4.8860  -15.7620 C   0  0  0  0  0  0  0  0  0  0  0  0
   -6.8340    4.8650  -19.3200 C   0  0  0  0  0  0  0  0  0  0  0  0
   -5.6230    5.7430  -18.9860 C   0  0  0  0  0  0  0  0  0  0  0  0
   -4.1960    6.9000  -20.4920 C   0  0  0  0  0  0  0  0  0  0  0  0
   -5.3900    7.8030  -20.2320 C   0  0  0  0  0  0  0  0  0  0  0  0
   -5.9920    7.2400  -18.9730 C   0  0  0  0  0  0  0  0  0  0  0  0
   -7.8200    6.9660  -27.0880 N   0  0  0  0  0  0  0  0  0  0  0  0
   -6.5940    6.8960  -26.5360 C   0  0  0  0  0  0  0  0  0  0  0  0
   -5.8400    5.9450  -26.7250 O   0  0  0  0  0  0  0  0  0  0  0  0
   -8.6500    8.0940  -27.0800 C   0  0  0  0  0  0  0  0  0  0  0  0
   -6.5740    7.9030  -24.3060 N   0  0  0  0  0  0  0  0  0  0  0  0
   -8.1410    9.3110  -26.6070 C   0  0  0  0  0  0  0  0  0  0  0  0
   -8.9930   10.4140  -26.5550 C   0  0  0  0  0  0  0  0  0  0  0  0
  -10.3190   10.3100  -26.9500 C   0  0  0  0  0  0  0  0  0  0  0  0
  -10.8130    9.1050  -27.4070 C   0  0  0  0  0  0  0  0  0  0  0  0
   -9.9850    7.9960  -27.4840 C   0  0  0  0  0  0  0  0  0  0  0  0
   -6.6880    9.4110  -26.2050 C   0  0  0  0  0  0  0  0  0  0  0  0
   -6.1340    8.0740  -25.6970 C   0  0  0  0  0  0  0  0  0  0  0  0
   -5.7110    8.7360  -23.5370 C   0  0  0  0  0  0  0  0  0  0  0  0
   -4.3290    8.5210  -24.1250 C   0  0  0  0  0  0  0  0  0  0  0  0
   -4.5980    8.0950  -25.5690 C   0  0  0  0  0  0  0  0  0  0  0  0
  1  2  1  0  0  0  0
  2 12  1  0  0  0  0
  2  3  2  0  0  0  0
  1  4  1  0  0  0  0
  4  6  4  0  0  0  0
  6  7  4  0  0  0  0
  7  8  4  0  0  0  0
  8  9  4  0  0  0  0
  9 10  4  0  0  0  0
  4 10  4  0  0  0  0
  6 11  1  0  0  0  0
  5 12  1  0  0  0  0
 11 12  1  0  0  0  0
 12 15  1  0  0  0  0
  5 13  1  0  0  0  0
 13 14  1  0  0  0  0
 14 15  1  0  0  0  0
 16 17  1  0  0  0  0
 17 27  1  0  0  0  0
 17 18  2  0  0  0  0
 16 19  1  0  0  0  0
 19 21  4  0  0  0  0
 21 22  4  0  0  0  0
 22 23  4  0  0  0  0
 23 24  4  0  0  0  0
 24 25  4  0  0  0  0
 19 25  4  0  0  0  0
 21 26  1  0  0  0  0
 20 27  1  0  0  0  0
 26 27  1  0  0  0  0
 27 30  1  0  0  0  0
 20 28  1  0  0  0  0
 28 29  1  0  0  0  0
 29 30  1  0  0  0  0
M  END
>  <pdb_header>
HEADER    ----                                    28-JUN-23                     
TITLE     ---                                                                   
EXPDTA    X-RAY DIFFRACTION                                                     
REMARK --------------------- added by autoBUSTER ---------------------------------START
REMARK run at   = Fri Oct 27 16:41:21 BST 2023
REMARK     in   = /dls/labxchem/data/lb32627/lb32627-65/processing/analysis/model_building/XX01ZVNS2B-x0229
REMARK     user = kyf22269
REMARK     cmd  = \
REMARK            /dls_sw/apps/GPhL/BUSTER/20230726/autoBUSTER/bin/linux64/refine \
REMARK            -p \
REMARK            /dls/labxchem/data/lb32627/lb32627-65/processing/analysis/model_building/XX01ZVNS2B-x0229/cootOut/Refi
REMARK            -m \
REMARK            /dls/labxchem/data/lb32627/lb32627-65/processing/analysis/model_building/XX01ZVNS2B-x0229/XX01ZVNS2B-x
REMARK            -l \
REMARK            /dls/labxchem/data/lb32627/lb32627-65/processing/analysis/model_building/XX01ZVNS2B-x0229/POB0120.cif 
REMARK            -autoncs -M TLSbasic -d Refine_14
REMARK Files used:
REMARK   PDB              = Refine_14/pdbchk.pdb
REMARK   MTZ              = /dls/labxchem/data/lb32627/lb32627-65/processing/analysis/model_building/XX01ZVNS2B-x0229/XX
REMARK output written to subdirectory = Refine_14
REMARK best refinement for F,SIGF with R/Rfree 0.2247/0.2537
REMARK header records are copied from input PDB file (apart from REMARK 3!)
REMARK --------------------- added by autoBUSTER -----------------------------------END
REMARK --------------------- added by autoBUSTER -------------------------------
REMARK run at   = Wed Oct  4 12:13:48 BST 2023                                  
REMARK     in   = /dls/labxchem/data/lb32627/lb32627-65/processing/analysis/mode
REMARK     user = kyf22269                                                      
REMARK     cmd  = \                                                             
REMARK            /dls_sw/apps/GPhL/BUSTER/20230726/autoBUSTER/bin/linux64/refin
REMARK            -p \                                                          
REMARK            /dls/labxchem/data/lb32627/lb32627-65/processing/analysis/mode
REMARK            -m \                                                          
REMARK            /dls/labxchem/data/lb32627/lb32627-65/processing/analysis/mode
REMARK            -l \                                                          
REMARK            /dls/labxchem/data/lb32627/lb32627-65/processing/analysis/mode
REMARK            -autoncs -M TLSbasic -d Refine_13                             
REMARK Files used:                                                              
REMARK   PDB              = Refine_13/pdbchk.pdb                                
REMARK   MTZ              = /dls/labxchem/data/lb32627/lb32627-65/processing/ana
REMARK output written to subdirectory = Refine_13                               
REMARK best refinement for F,SIGF with R/Rfree 0.2248/0.2542                    
REMARK header records are copied from input PDB file (apart from REMARK 3!)     
REMARK --------------------- added by autoBUSTER -------------------------------
REMARK --------------------- added by autoBUSTER -------------------------------
REMARK run at   = Fri Sep 29 16:38:46 BST 2023                                  
REMARK     in   = /dls/labxchem/data/lb32627/lb32627-65/processing/analysis/mode
REMARK     user = kyf22269                                                      
REMARK     cmd  = \                                                             
REMARK            /dls_sw/apps/GPhL/BUSTER/20230726/autoBUSTER/bin/linux64/refin
REMARK            -p \                                                          
REMARK            /dls/labxchem/data/lb32627/lb32627-65/processing/analysis/mode
REMARK            -m \                                                          
REMARK            /dls/labxchem/data/lb32627/lb32627-65/processing/analysis/mode
REMARK            -l \                                                          
REMARK            /dls/labxchem/data/lb32627/lb32627-65/processing/analysis/mode
REMARK            -autoncs -M TLSbasic -d Refine_12                             
REMARK Files used:                                                              
REMARK   PDB              = Refine_12/pdbchk.pdb                                
REMARK   MTZ              = /dls/labxchem/data/lb32627/lb32627-65/processing/ana
REMARK output written to subdirectory = Refine_12                               
REMARK best refinement for F,SIGF with R/Rfree 0.2247/0.2530                    
REMARK header records are copied from input PDB file (apart from REMARK 3!)     
REMARK --------------------- added by autoBUSTER -------------------------------
REMARK --------------------- added by autoBUSTER -------------------------------
REMARK run at   = Fri Sep 29 16:23:33 BST 2023                                  
REMARK     in   = /dls/labxchem/data/lb32627/lb32627-65/processing/analysis/mode
REMARK     user = kyf22269                                                      
REMARK     cmd  = \                                                             
REMARK            /dls_sw/apps/GPhL/BUSTER/20230726/autoBUSTER/bin/linux64/refin
REMARK            -p \                                                          
REMARK            /dls/labxchem/data/lb32627/lb32627-65/processing/analysis/mode
REMARK            -m \                                                          
REMARK            /dls/labxchem/data/lb32627/lb32627-65/processing/analysis/mode
REMARK            -l \                                                          
REMARK            /dls/labxchem/data/lb32627/lb32627-65/processing/analysis/mode
REMARK            -autoncs -M TLSbasic -d Refine_11                             
REMARK Files used:                                                              
REMARK   PDB              = Refine_11/pdbchk.pdb                                
REMARK   MTZ              = /dls/labxchem/data/lb32627/lb32627-65/processing/ana
REMARK output written to subdirectory = Refine_11                               
REMARK best refinement for F,SIGF with R/Rfree 0.2250/0.2548                    
REMARK header records are copied from input PDB file (apart from REMARK 3!)     
REMARK --------------------- added by autoBUSTER -------------------------------
REMARK --------------------- added by autoBUSTER -------------------------------
REMARK run at   = Fri Sep 15 16:38:58 BST 2023                                  
REMARK     in   = /dls/labxchem/data/lb32627/lb32627-65/processing/analysis/mode
REMARK     user = kyf22269                                                      
REMARK     cmd  = \                                                             
REMARK            /dls_sw/apps/GPhL/BUSTER/20230726/autoBUSTER/bin/linux64/refin
REMARK            -p \                                                          
REMARK            /dls/labxchem/data/lb32627/lb32627-65/processing/analysis/mode
REMARK            -m \                                                          
REMARK            /dls/labxchem/data/lb32627/lb32627-65/processing/analysis/mode
REMARK            -l \                                                          
REMARK            /dls/labxchem/data/lb32627/lb32627-65/processing/analysis/mode
REMARK            -autoncs -M TLSbasic -d Refine_10                             
REMARK Files used:                                                              
REMARK   PDB              = Refine_10/pdbchk.pdb                                
REMARK   MTZ              = /dls/labxchem/data/lb32627/lb32627-65/processing/ana
REMARK output written to subdirectory = Refine_10                               
REMARK best refinement for F,SIGF with R/Rfree 0.2231/0.2533                    
REMARK header records are copied from input PDB file (apart from REMARK 3!)     
REMARK --------------------- added by autoBUSTER -------------------------------
REMARK --------------------- added by autoBUSTER -------------------------------
REMARK run at   = Wed Aug  9 10:27:00 BST 2023                                  
REMARK     in   = /dls/labxchem/data/lb32627/lb32627-65/processing/analysis/mode
REMARK     user = kyf22269                                                      
REMARK     cmd  = \                                                             
REMARK            /dls_sw/apps/GPhL/BUSTER/20230614/autoBUSTER/bin/linux64/refin
REMARK            -p \                                                          
REMARK            /dls/labxchem/data/lb32627/lb32627-65/processing/analysis/mode
REMARK            -m \                                                          
REMARK            /dls/labxchem/data/lb32627/lb32627-65/processing/analysis/mode
REMARK            -l \                                                          
REMARK            /dls/labxchem/data/lb32627/lb32627-65/processing/analysis/mode
REMARK            -autoncs -M TLSbasic -d Refine_9                              
REMARK Files used:                                                              
REMARK   PDB              = Refine_9/pdbchk.pdb                                 
REMARK   MTZ              = /dls/labxchem/data/lb32627/lb32627-65/processing/ana
REMARK output written to subdirectory = Refine_9                                
REMARK best refinement for F,SIGF with R/Rfree 0.2260/0.2491                    
REMARK header records are copied from input PDB file (apart from REMARK 3!)     
REMARK --------------------- added by autoBUSTER -------------------------------
REMARK --------------------- added by autoBUSTER -------------------------------
REMARK run at   = Fri Aug  4 11:07:29 BST 2023                                  
REMARK     in   = /dls/labxchem/data/lb32627/lb32627-65/processing/analysis/mode
REMARK     user = kyf22269                                                      
REMARK     cmd  = \                                                             
REMARK            /dls_sw/apps/GPhL/BUSTER/20230614/autoBUSTER/bin/linux64/refin
REMARK            -p \                                                          
REMARK            /dls/labxchem/data/lb32627/lb32627-65/processing/analysis/mode
REMARK            -m \                                                          
REMARK            /dls/labxchem/data/lb32627/lb32627-65/processing/analysis/mode
REMARK            -l \                                                          
REMARK            /dls/labxchem/data/lb32627/lb32627-65/processing/analysis/mode
REMARK            -autoncs -M TLSbasic -d Refine_8                              
REMARK Files used:                                                              
REMARK   PDB              = Refine_8/pdbchk.pdb                                 
REMARK   MTZ              = /dls/labxchem/data/lb32627/lb32627-65/processing/ana
REMARK output written to subdirectory = Refine_8                                
REMARK best refinement for F,SIGF with R/Rfree 0.2272/0.2488                    
REMARK header records are copied from input PDB file (apart from REMARK 3!)     
REMARK --------------------- added by autoBUSTER -------------------------------
REMARK --------------------- added by autoBUSTER -------------------------------
REMARK run at   = Tue Aug  1 13:59:04 BST 2023                                  
REMARK     in   = /dls/labxchem/data/lb32627/lb32627-65/processing/analysis/mode
REMARK     user = kyf22269                                                      
REMARK     cmd  = \                                                             
REMARK            /dls_sw/apps/GPhL/BUSTER/20230614/autoBUSTER/bin/linux64/refin
REMARK            -p \                                                          
REMARK            /dls/labxchem/data/lb32627/lb32627-65/processing/analysis/mode
REMARK            -m \                                                          
REMARK            /dls/labxchem/data/lb32627/lb32627-65/processing/analysis/mode
REMARK            -l \                                                          
REMARK            /dls/labxchem/data/lb32627/lb32627-65/processing/analysis/mode
REMARK            -autoncs -M TLSbasic -d Refine_7                              
REMARK Files used:                                                              
REMARK   PDB              = Refine_7/pdbchk.pdb                                 
REMARK   MTZ              = /dls/labxchem/data/lb32627/lb32627-65/processing/ana
REMARK output written to subdirectory = Refine_7                                
REMARK best refinement for F,SIGF with R/Rfree 0.2300/0.2515                    
REMARK header records are copied from input PDB file (apart from REMARK 3!)     
REMARK --------------------- added by autoBUSTER -------------------------------
REMARK --------------------- added by autoBUSTER -------------------------------
REMARK run at   = Mon Jul 17 11:12:09 BST 2023                                  
REMARK     in   = /dls/labxchem/data/lb32627/lb32627-65/processing/analysis/mode
REMARK     user = kyf22269                                                      
REMARK     cmd  = \                                                             
REMARK            /dls_sw/apps/GPhL/BUSTER/20230614/autoBUSTER/bin/linux64/refin
REMARK            -p \                                                          
REMARK            /dls/labxchem/data/lb32627/lb32627-65/processing/analysis/mode
REMARK            -m \                                                          
REMARK            /dls/labxchem/data/lb32627/lb32627-65/processing/analysis/mode
REMARK            -l \                                                          
REMARK            /dls/labxchem/data/lb32627/lb32627-65/processing/analysis/mode
REMARK            -autoncs -M TLSbasic -d Refine_6                              
REMARK Files used:                                                              
REMARK   PDB              = Refine_6/pdbchk.pdb                                 
REMARK   MTZ              = /dls/labxchem/data/lb32627/lb32627-65/processing/ana
REMARK output written to subdirectory = Refine_6                                
REMARK best refinement for F,SIGF with R/Rfree 0.2347/0.2613                    
REMARK header records are copied from input PDB file (apart from REMARK 3!)     
REMARK --------------------- added by autoBUSTER -------------------------------
REMARK   2                                                            
REMARK   2 RESOLUTION.    1.41 ANGSTROMS.
REMARK   3
REMARK   3 REFINEMENT.
REMARK   3   PROGRAM     : BUSTER 2.10.4 (26-JUL-2023)
REMARK   3   AUTHORS     : BRICOGNE,BLANC,BRANDL,FLENSBURG,KELLER,
REMARK   3               : PACIOREK,ROVERSI,SHARFF,SMART,VONRHEIN,WOMACK;
REMARK   3               : MATTHEWS,TEN EYCK,TRONRUD
REMARK   3
REMARK   3  DATA USED IN REFINEMENT.
REMARK   3   RESOLUTION RANGE HIGH (ANGSTROMS) : 1.407
REMARK   3   RESOLUTION RANGE LOW  (ANGSTROMS) : 54.39
REMARK   3   DATA CUTOFF            (SIGMA(F)) : 0.000
REMARK   3   COMPLETENESS FOR RANGE        (%) : 87.7
REMARK   3   NUMBER OF REFLECTIONS             : 35330
REMARK   3
REMARK   3  FIT TO DATA USED IN REFINEMENT.
REMARK   3   CROSS-VALIDATION METHOD          : THROUGHOUT
REMARK   3   FREE R VALUE TEST SET SELECTION  : RANDOM
REMARK   3   R VALUE     (WORKING + TEST SET) : 0.2261
REMARK   3   R VALUE            (WORKING SET) : 0.2247
REMARK   3   FREE R VALUE                     : 0.2537
REMARK   3   FREE R VALUE TEST SET SIZE   (%) : 5.080
REMARK   3   FREE R VALUE TEST SET COUNT      : 1796
REMARK   3   ESTIMATED ERROR OF FREE R VALUE  : NULL
REMARK   3
REMARK   3  FIT IN THE HIGHEST RESOLUTION BIN.
REMARK   3   TOTAL NUMBER OF BINS USED           : 51
REMARK   3   BIN RESOLUTION RANGE HIGH       (A) : 1.41
REMARK   3   BIN RESOLUTION RANGE LOW        (A) : 1.48
REMARK   3   BIN COMPLETENESS (WORKING+TEST) (%) : 12.28
REMARK   3   REFLECTIONS IN BIN   (WORKING+TEST) : 707
REMARK   3   BIN R VALUE          (WORKING+TEST) : 0.5657
REMARK   3   REFLECTIONS IN BIN    (WORKING SET) : 658
REMARK   3   BIN R VALUE           (WORKING SET) : 0.5698
REMARK   3   BIN FREE R VALUE                    : 0.5129
REMARK   3   BIN FREE R VALUE TEST SET SIZE  (%) : 6.93
REMARK   3   BIN FREE R VALUE TEST SET COUNT     : 49
REMARK   3   ESTIMATED ERROR OF BIN FREE R VALUE : NULL
REMARK   3
REMARK   3  NUMBER OF NON-HYDROGEN ATOMS USED IN REFINEMENT.
REMARK   3   PROTEIN ATOMS            : 1463
REMARK   3   NUCLEIC ACID ATOMS       : 0
REMARK   3   HETEROGEN ATOMS          : 54
REMARK   3   SOLVENT ATOMS            : 110
REMARK   3
REMARK   3  B VALUES.
REMARK   3   FROM WILSON PLOT           (A**2) : 29.43
REMARK   3   MEAN B VALUE      (OVERALL, A**2) : 41.33
REMARK   3   OVERALL ANISOTROPIC B VALUE.
REMARK   3    B11 (A**2) : -2.24610
REMARK   3    B22 (A**2) : -2.24610
REMARK   3    B33 (A**2) : 4.49210
REMARK   3    B12 (A**2) : 0.00000
REMARK   3    B13 (A**2) : 0.00000
REMARK   3    B23 (A**2) : 0.00000
REMARK   3
REMARK   3  ESTIMATED COORDINATE ERROR.
REMARK   3   ESD FROM LUZZATI PLOT                    (A) : 0.28
REMARK   3   DPI (BLOW EQ-10) BASED ON R VALUE        (A) : 0.087
REMARK   3   DPI (BLOW EQ-9) BASED ON FREE R VALUE    (A) : 0.086
REMARK   3   DPI (CRUICKSHANK) BASED ON R VALUE       (A) : 0.083
REMARK   3   DPI (CRUICKSHANK) BASED ON FREE R VALUE  (A) : 0.083
REMARK   3
REMARK   3   REFERENCES: BLOW, D. (2002) ACTA CRYST D58, 792-797
REMARK   3               CRUICKSHANK, D.W.J. (1999) ACTA CRYST D55, 583-601
REMARK   3
REMARK   3  CORRELATION COEFFICIENTS.
REMARK   3   CORRELATION COEFFICIENT FO-FC      : 0.959
REMARK   3   CORRELATION COEFFICIENT FO-FC FREE : 0.949
REMARK   3
REMARK   3  X-RAY WEIGHT : 7.13
REMARK   3
REMARK   3  GEOMETRY FUNCTION.                                                  
REMARK   3   RESTRAINT LIBRARIES.                                               
REMARK   3    NUMBER OF LIBRARIES USED :   9                                    
REMARK   3    LIBRARY  1 : protgeo_eh99.dat (V1.6.4.20) 20220523  STANDARD      
REMARK   3                 AMINO ACID DICTIONARY. BONDS AND ANGLES FROM         
REMARK   3                 ENGH AND HUBER EH99. OTHER VALUES BASED ON           
REMARK   3                 PREVIOUS TNT OR TAKEN FROM CCP4. INCLUDES            
REMARK   3                 HYDROGEN ATOMS.                                      
REMARK   3    LIBRARY  2 : exoticaa.dat (V1.3.4.16) 20220523  COLLECTION        
REMARK   3                 OF NON-STANDARD AMINO ACIDS, MAINLY EH91             
REMARK   3                 WITHOUT IDEAL DISTANCE INFO                          
REMARK   3    LIBRARY  3 : nuclgeo.dat (V1.13.4.9) 20221011                     
REMARK   3    LIBRARY  4 : bcorrel.dat (V1.15.10.2) 20190616                    
REMARK   3    LIBRARY  5 : contact.dat (V1.15.12.10) 20191121                   
REMARK   3    LIBRARY  6 : idealdist_contact.dat (V1.3.4.14) 20230724           
REMARK   3                 IDEAL-DISTANCE CONTACT TERM DATA AS USED IN          
REMARK   3                 PROLSQ. VALUES USED HERE ARE BASEd ON DATA           
REMARK   3                 HARVESTING OF PDB AS OF 20190109                     
REMARK   3    LIBRARY  7 : restraints for LIG (unknown) from cif                
REMARK   3                 dictionary POB0120.cif; generated by GRADE           
REMARK   3                 1.2.21 (Feb 03 2022) from SMILES                     
REMARK   3                 O=C1NC2=C(C=CC=C2)CC31NCCC3 using MOGUL              
REMARK   3                 1.8.5(274361), CSD as541be, with quantum             
REMARK   3                 mechanics RM1                                        
REMARK   3    LIBRARY  8 : restraints for DMS (DIMETHYL SULFOXIDE) from         
REMARK   3                 cif dictionary DMS.cif; generated by grade2          
REMARK   3                 version 1.1.0a7 from                                 
REMARK   3                 PDB_chemical_components_definition_file              
REMARK   3                 ftp://ftp.ebi.ac.uk/pub/databases/msd/pdbechem_v     
REMARK   3                 2/D/DMS/DMS.cif using RDKit 2021.03.4                
REMARK   3                 ((DatabaseID PDB-DMS))                               
REMARK   3    LIBRARY  9 : assume.dat (V1.9.4.3) 20221011                       
REMARK   3                                                                      
REMARK   3   NUMBER OF GEOMETRIC FUNCTION TERMS DEFINED : 15                    
REMARK   3   TERM                          COUNT    WEIGHT   FUNCTION.          
REMARK   3    BOND LENGTHS              :   1717 ;   2.00 ;  HARMONIC           
REMARK   3    BOND ANGLES               :   2363 ;   2.00 ;  HARMONIC           
REMARK   3    TORSION ANGLES            :    591 ;   2.00 ;  SINUSOIDAL         
REMARK   3    TRIGONAL CARBON PLANES    :   NULL ;   NULL ;  NULL               
REMARK   3    GENERAL PLANES            :    319 ;   5.00 ;  HARMONIC           
REMARK   3    ISOTROPIC THERMAL FACTORS :   1717 ;  10.00 ;  HARMONIC           
REMARK   3    BAD NON-BONDED CONTACTS   :   NULL ;   NULL ;  NULL               
REMARK   3    IMPROPER TORSIONS         :   NULL ;   NULL ;  NULL               
REMARK   3    PSEUDOROTATION ANGLES     :   NULL ;   NULL ;  NULL               
REMARK   3    CHIRAL IMPROPER TORSION   :    212 ;   5.00 ;  SEMIHARMONIC       
REMARK   3    SUM OF OCCUPANCIES        :   NULL ;   NULL ;  NULL               
REMARK   3    UTILITY DISTANCES         :   NULL ;   NULL ;  NULL               
REMARK   3    UTILITY ANGLES            :   NULL ;   NULL ;  NULL               
REMARK   3    UTILITY TORSION           :   NULL ;   NULL ;  NULL               
REMARK   3    IDEAL-DIST CONTACT TERM   :   1492 ;   4.00 ;  SEMIHARMONIC       
REMARK   3                                                                      
REMARK   3   RMS DEVIATIONS FROM IDEAL VALUES.                                  
REMARK   3   BOND LENGTHS                       (A) : 0.011                     
REMARK   3   BOND ANGLES                  (DEGREES) : 1.06                      
REMARK   3   PEPTIDE OMEGA TORSION ANGLES (DEGREES) : 4.02                      
REMARK   3   OTHER TORSION ANGLES         (DEGREES) : 15.25                     
REMARK   3                                                                      
REMARK   3   SIMILARITY.                                                        
REMARK   3    NCS.                                                              
REMARK   3     NCS METHOD: NONE                                                 
REMARK   3    TARGET RESTRAINTS.                                                
REMARK   3     TARGET REPRESENTATION : NONE                                     
REMARK   3     TARGET STRUCTURE : NULL                                          
REMARK   3                                                                      
REMARK   3  TLS DETAILS.                                                        
REMARK   3   NUMBER OF TLS GROUPS  :            2                               
REMARK   3                                                                      
REMARK   3   TLS GROUP :            1                                           
REMARK   3    SET : { A|* }                                                     
REMARK   3    ORIGIN FOR THE GROUP (A):  -13.8022   -2.1780  -20.7293           
REMARK   3    T TENSOR                                                          
REMARK   3     T11:    0.0411 T22:   -0.0071                                    
REMARK   3     T33:   -0.1747 T12:    0.1140                                    
REMARK   3     T13:    0.0554 T23:    0.0364                                    
REMARK   3    L TENSOR                                                          
REMARK   3     L11:    2.3546 L22:    2.3739                                    
REMARK   3     L33:    2.0648 L12:   -1.3665                                    
REMARK   3     L13:    0.0795 L23:    0.2057                                    
REMARK   3    S TENSOR                                                          
REMARK   3     S11:    0.3744 S12:    0.2403 S13:    0.1686                     
REMARK   3     S21:   -0.4301 S22:   -0.3065 S23:   -0.1529                     
REMARK   3     S31:    0.0360 S32:    0.2630 S33:   -0.0680                     
REMARK   3                                                                      
REMARK   3   TLS GROUP :            2                                           
REMARK   3    SET : { B|* }                                                     
REMARK   3    ORIGIN FOR THE GROUP (A):  -18.1351    1.2001  -15.8850           
REMARK   3    T TENSOR                                                          
REMARK   3     T11:    0.0689 T22:    0.0130                                    
REMARK   3     T33:   -0.0743 T12:    0.0808                                    
REMARK   3     T13:    0.0225 T23:    0.0159                                    
REMARK   3    L TENSOR                                                          
REMARK   3     L11:    1.2920 L22:    1.1111                                    
REMARK   3     L33:    1.3511 L12:   -0.9447                                    
REMARK   3     L13:    0.1937 L23:   -0.0972                                    
REMARK   3    S TENSOR                                                          
REMARK   3     S11:    0.2340 S12:    0.0554 S13:    0.0743                     
REMARK   3     S21:   -0.1787 S22:   -0.2118 S23:    0.0217                     
REMARK   3     S31:    0.0270 S32:    0.0984 S33:   -0.0223                     
REMARK   3                                                                      
REMARK   3  REFINEMENT NOTES.                                                   
REMARK   3   NUMBER OF REFINEMENT NOTES :   1                                   
REMARK   3   NOTE   1 : IDEAL-DIST CONTACT TERM CONTACT SETUP. ALL ATOMS        
REMARK   3               HAVE CCP4 ATOM TYPE FROM LIBRARY                       
REMARK   3
REMARK   3  OTHER REFINEMENT REMARKS: NULL
REMARK   3
REMARK 290                                                            
REMARK 290 CRYSTALLOGRAPHIC SYMMETRY                                  
REMARK 290 SYMMETRY OPERATORS FOR SPACE GROUP: P 43 2 2               
REMARK 290                                                            
REMARK 290      SYMOP   SYMMETRY                                      
REMARK 290     NNNMMM   OPERATOR                                      
REMARK 290       1555   X,Y,Z                                         
REMARK 290       2555   -X,-Y,1/2+Z                                   
REMARK 290       3555   -Y,X,3/4+Z                                    
REMARK 290       4555   Y,-X,1/4+Z                                    
REMARK 290       5555   -X,Y,-Z                                       
REMARK 290       6555   X,-Y,1/2-Z                                    
REMARK 290       7555   Y,X,1/4-Z                                     
REMARK 290       8555   -Y,-X,3/4-Z                                   
REMARK 290                                                            
REMARK 290     WHERE NNN -> OPERATOR NUMBER                           
REMARK 290           MMM -> TRANSLATION VECTOR                        
REMARK 290                                                            
REMARK 290 CRYSTALLOGRAPHIC SYMMETRY TRANSFORMATIONS                  
REMARK 290 THE FOLLOWING TRANSFORMATIONS OPERATE ON THE ATOM/HETATM   
REMARK 290 RECORDS IN THIS ENTRY TO PRODUCE CRYSTALLOGRAPHICALLY      
REMARK 290 RELATED MOLECULES.                                         
REMARK 290   SMTRY1   1  1.000000  0.000000  0.000000        0.00000
REMARK 290   SMTRY2   1  0.000000  1.000000  0.000000        0.00000
REMARK 290   SMTRY3   1  0.000000  0.000000  1.000000        0.00000
REMARK 290   SMTRY1   2 -1.000000  0.000000  0.000000        0.00000
REMARK 290   SMTRY2   2  0.000000 -1.000000  0.000000        0.00000
REMARK 290   SMTRY3   2  0.000000  0.000000  1.000000      108.77700
REMARK 290   SMTRY1   3  0.000000 -1.000000  0.000000        0.00000
REMARK 290   SMTRY2   3  1.000000  0.000000  0.000000        0.00000
REMARK 290   SMTRY3   3  0.000000  0.000000  1.000000      163.16550
REMARK 290   SMTRY1   4  0.000000  1.000000  0.000000        0.00000
REMARK 290   SMTRY2   4 -1.000000  0.000000  0.000000        0.00000
REMARK 290   SMTRY3   4  0.000000  0.000000  1.000000       54.38850
REMARK 290   SMTRY1   5 -1.000000  0.000000  0.000000        0.00000
REMARK 290   SMTRY2   5  0.000000  1.000000  0.000000        0.00000
REMARK 290   SMTRY3   5  0.000000  0.000000 -1.000000        0.00000
REMARK 290   SMTRY1   6  1.000000  0.000000  0.000000        0.00000
REMARK 290   SMTRY2   6  0.000000 -1.000000  0.000000        0.00000
REMARK 290   SMTRY3   6  0.000000  0.000000 -1.000000      108.77700
REMARK 290   SMTRY1   7  0.000000  1.000000  0.000000        0.00000
REMARK 290   SMTRY2   7  1.000000  0.000000  0.000000        0.00000
REMARK 290   SMTRY3   7  0.000000  0.000000 -1.000000       54.38850
REMARK 290   SMTRY1   8  0.000000 -1.000000  0.000000        0.00000
REMARK 290   SMTRY2   8 -1.000000  0.000000  0.000000        0.00000
REMARK 290   SMTRY3   8  0.000000  0.000000 -1.000000      163.16550
REMARK 290                                                            
REMARK 290 REMARK: NULL                                               
CRYST1   42.533   42.533  217.554  90.00  90.00  90.00 P 43 2 2                 


$$$$
Zx0229a_ligand
  PyMOL3.0          3D                             0

 15 17  0  0  0  0  0  0  0  0999 V2000
   -5.0740    5.3820  -17.6180 C   0  0  0  0  0  0  0  0  0  0  0  0
   -4.6080    5.6000  -20.0470 N   0  0  0  0  0  0  0  0  0  0  0  0
   -3.8820    5.1330  -17.4830 O   0  0  0  0  0  0  0  0  0  0  0  0
   -5.6230    5.7430  -18.9860 C   0  0  0  0  0  0  0  0  0  0  0  0
   -5.9700    5.1790  -16.6360 N   0  0  0  0  0  0  0  0  0  0  0  0
   -5.9920    7.2400  -18.9730 C   0  0  0  0  0  0  0  0  0  0  0  0
   -5.3900    7.8030  -20.2320 C   0  0  0  0  0  0  0  0  0  0  0  0
   -4.1960    6.9000  -20.4920 C   0  0  0  0  0  0  0  0  0  0  0  0
   -6.8340    4.8650  -19.3200 C   0  0  0  0  0  0  0  0  0  0  0  0
   -7.8070    4.8390  -18.1600 C   0  0  0  0  0  0  0  0  0  0  0  0
   -9.1580    4.5710  -18.3570 C   0  0  0  0  0  0  0  0  0  0  0  0
  -10.0130    4.4320  -17.2810 C   0  0  0  0  0  0  0  0  0  0  0  0
   -9.5430    4.5920  -15.9890 C   0  0  0  0  0  0  0  0  0  0  0  0
   -8.2110    4.8860  -15.7620 C   0  0  0  0  0  0  0  0  0  0  0  0
   -7.3370    4.9910  -16.8470 C   0  0  0  0  0  0  0  0  0  0  0  0
  1  4  1  0  0  0  0
  1  5  1  0  0  0  0
  1  3  2  0  0  0  0
  2  4  1  0  0  0  0
  4  6  1  0  0  0  0
  4  9  1  0  0  0  0
  6  7  1  0  0  0  0
  7  8  1  0  0  0  0
  2  8  1  0  0  0  0
  9 10  1  0  0  0  0
 10 11  4  0  0  0  0
 10 15  4  0  0  0  0
 11 12  4  0  0  0  0
 12 13  4  0  0  0  0
 13 14  4  0  0  0  0
 14 15  4  0  0  0  0
  5 15  1  0  0  0  0
M  END
>  <pdb_header>
COMPND    XX01ZVNS2B-x0229_B_301_XX01ZVNS2B-x1291+B+301+1


$$$$
Zx0386a
  PyMOL3.0          3D                             0

  7  7  0  0  0  0  0  0  0  0999 V2000
   -6.6380    5.3270  -20.0420 N   0  0  0  0  0  0  0  0  0  0  0  0
   -6.6530    5.2540  -18.5860 C   0  0  0  0  0  0  0  0  0  0  0  0
   -9.5450    4.0720  -16.6780 O   0  0  0  0  0  0  0  0  0  0  0  0
   -7.9350    4.7360  -18.0180 C   0  0  0  0  0  0  0  0  0  0  0  0
   -9.0230    4.4060  -18.8120 N   0  0  0  0  0  0  0  0  0  0  0  0
   -8.2590    4.5240  -16.7370 C   0  0  0  0  0  0  0  0  0  0  0  0
   -9.9200    4.0410  -17.9720 C   0  0  0  0  0  0  0  0  0  0  0  0
  1  2  1  0  0  0  0
  2  4  1  0  0  0  0
  3  6  4  0  0  0  0
  4  5  4  0  0  0  0
  4  6  4  0  0  0  0
  5  7  4  0  0  0  0
  3  7  4  0  0  0  0
M  END
>  <pdb_header>
HEADER    ----                                    18-MAY-23                     
TITLE     ---                                                                   
EXPDTA    X-RAY DIFFRACTION                                                     
REMARK --------------------- added by autoBUSTER ---------------------------------START
REMARK run at   = Fri Oct 27 16:42:25 BST 2023
REMARK     in   = /dls/labxchem/data/lb32627/lb32627-65/processing/analysis/model_building/XX01ZVNS2B-x0386
REMARK     user = kyf22269
REMARK     cmd  = \
REMARK            /dls_sw/apps/GPhL/BUSTER/20230726/autoBUSTER/bin/linux64/refine \
REMARK            -p \
REMARK            /dls/labxchem/data/lb32627/lb32627-65/processing/analysis/model_building/XX01ZVNS2B-x0386/cootOut/Refi
REMARK            -m \
REMARK            /dls/labxchem/data/lb32627/lb32627-65/processing/analysis/model_building/XX01ZVNS2B-x0386/XX01ZVNS2B-x
REMARK            -l \
REMARK            /dls/labxchem/data/lb32627/lb32627-65/processing/analysis/model_building/XX01ZVNS2B-x0386/Z1962142017.
REMARK            -autoncs -M TLSbasic -d Refine_9
REMARK Files used:
REMARK   PDB              = Refine_9/pdbchk.pdb
REMARK   MTZ              = /dls/labxchem/data/lb32627/lb32627-65/processing/analysis/model_building/XX01ZVNS2B-x0386/XX
REMARK output written to subdirectory = Refine_9
REMARK best refinement for F,SIGF with R/Rfree 0.2175/0.2428
REMARK header records are copied from input PDB file (apart from REMARK 3!)
REMARK --------------------- added by autoBUSTER -----------------------------------END
REMARK --------------------- added by autoBUSTER -------------------------------
REMARK run at   = Fri Sep 15 16:59:04 BST 2023                                  
REMARK     in   = /dls/labxchem/data/lb32627/lb32627-65/processing/analysis/mode
REMARK     user = kyf22269                                                      
REMARK     cmd  = \                                                             
REMARK            /dls_sw/apps/GPhL/BUSTER/20230726/autoBUSTER/bin/linux64/refin
REMARK            -p \                                                          
REMARK            /dls/labxchem/data/lb32627/lb32627-65/processing/analysis/mode
REMARK            -m \                                                          
REMARK            /dls/labxchem/data/lb32627/lb32627-65/processing/analysis/mode
REMARK            -l \                                                          
REMARK            /dls/labxchem/data/lb32627/lb32627-65/processing/analysis/mode
REMARK            -autoncs -M TLSbasic -d Refine_8                              
REMARK Files used:                                                              
REMARK   PDB              = Refine_8/pdbchk.pdb                                 
REMARK   MTZ              = /dls/labxchem/data/lb32627/lb32627-65/processing/ana
REMARK output written to subdirectory = Refine_8                                
REMARK best refinement for F,SIGF with R/Rfree 0.2179/0.2438                    
REMARK header records are copied from input PDB file (apart from REMARK 3!)     
REMARK --------------------- added by autoBUSTER -------------------------------
REMARK --------------------- added by autoBUSTER -------------------------------
REMARK run at   = Mon Jun 12 19:13:16 BST 2023                                  
REMARK     in   = /dls/labxchem/data/lb32627/lb32627-65/processing/analysis/mode
REMARK     user = xau79897                                                      
REMARK     cmd  = \                                                             
REMARK            /dls_sw/apps/GPhL/BUSTER/20230217/autoBUSTER/bin/linux64/refin
REMARK            -p \                                                          
REMARK            /dls/labxchem/data/lb32627/lb32627-65/processing/analysis/mode
REMARK            -m \                                                          
REMARK            /dls/labxchem/data/lb32627/lb32627-65/processing/analysis/mode
REMARK            -l \                                                          
REMARK            /dls/labxchem/data/lb32627/lb32627-65/processing/analysis/mode
REMARK            -autoncs -M TLSbasic StopOnGellySanityCheckError=no -d \      
REMARK            Refine_7                                                      
REMARK Files used:                                                              
REMARK   PDB              = Refine_7/pdbchk.pdb                                 
REMARK   MTZ              = /dls/labxchem/data/lb32627/lb32627-65/processing/ana
REMARK output written to subdirectory = Refine_7                                
REMARK best refinement for F,SIGF with R/Rfree 0.2177/0.2450                    
REMARK header records are copied from input PDB file (apart from REMARK 3!)     
REMARK --------------------- added by autoBUSTER -------------------------------
REMARK --------------------- added by autoBUSTER -------------------------------
REMARK run at   = Thu Jun  1 13:51:10 BST 2023                                  
REMARK     in   = /dls/labxchem/data/lb32627/lb32627-65/processing/analysis/mode
REMARK     user = xau79897                                                      
REMARK     cmd  = \                                                             
REMARK            /dls_sw/apps/GPhL/BUSTER/20230217/autoBUSTER/bin/linux64/refin
REMARK            -p \                                                          
REMARK            /dls/labxchem/data/lb32627/lb32627-65/processing/analysis/mode
REMARK            -m \                                                          
REMARK            /dls/labxchem/data/lb32627/lb32627-65/processing/analysis/mode
REMARK            -l \                                                          
REMARK            /dls/labxchem/data/lb32627/lb32627-65/processing/analysis/mode
REMARK            -autoncs -M TLSbasic -d Refine_6                              
REMARK Files used:                                                              
REMARK   PDB              = Refine_6/pdbchk.pdb                                 
REMARK   MTZ              = /dls/labxchem/data/lb32627/lb32627-65/processing/ana
REMARK output written to subdirectory = Refine_6                                
REMARK best refinement for F,SIGF with R/Rfree 0.2197/0.2439                    
REMARK header records are copied from input PDB file (apart from REMARK 3!)     
REMARK --------------------- added by autoBUSTER -------------------------------
REMARK --------------------- added by autoBUSTER -------------------------------
REMARK run at   = Wed May 24 20:29:55 BST 2023                                  
REMARK     in   = /dls/labxchem/data/lb32627/lb32627-65/processing/analysis/mode
REMARK     user = xau79897                                                      
REMARK     cmd  = \                                                             
REMARK            /dls_sw/apps/GPhL/BUSTER/20230217/autoBUSTER/bin/linux64/refin
REMARK            -p \                                                          
REMARK            /dls/labxchem/data/lb32627/lb32627-65/processing/analysis/mode
REMARK            -m \                                                          
REMARK            /dls/labxchem/data/lb32627/lb32627-65/processing/analysis/mode
REMARK            -l \                                                          
REMARK            /dls/labxchem/data/lb32627/lb32627-65/processing/analysis/mode
REMARK            -autoncs -M TLSbasic -B user -Gelly gelly.dat \               
REMARK            StopOnGellySanityCheckError=no -d Refine_5                    
REMARK Files used:                                                              
REMARK   PDB              = Refine_5/pdbchk.pdb                                 
REMARK   MTZ              = /dls/labxchem/data/lb32627/lb32627-65/processing/ana
REMARK   Gelly commands       = /dls/labxchem/data/lb32627/lb32627-65/processing
REMARK output written to subdirectory = Refine_5                                
REMARK best refinement for F,SIGF with R/Rfree 0.2198/0.2439                    
REMARK header records are copied from input PDB file (apart from REMARK 3!)     
REMARK --------------------- added by autoBUSTER -------------------------------
REMARK --------------------- added by autoBUSTER -------------------------------
REMARK run at   = Wed May 24 13:18:11 BST 2023                                  
REMARK     in   = /dls/labxchem/data/lb32627/lb32627-65/processing/analysis/mode
REMARK     user = xau79897                                                      
REMARK     cmd  = \                                                             
REMARK            /dls_sw/apps/GPhL/BUSTER/20230217/autoBUSTER/bin/linux64/refin
REMARK            -p \                                                          
REMARK            /dls/labxchem/data/lb32627/lb32627-65/processing/analysis/mode
REMARK            -m \                                                          
REMARK            /dls/labxchem/data/lb32627/lb32627-65/processing/analysis/mode
REMARK            -l \                                                          
REMARK            /dls/labxchem/data/lb32627/lb32627-65/processing/analysis/mode
REMARK            -autoncs -M TLSbasic -WAT -B user -Gelly gelly.dat \          
REMARK            StopOnGellySanityCheckError=no -d Refine_4                    
REMARK Files used:                                                              
REMARK   PDB              = Refine_4/pdbchk.pdb                                 
REMARK   MTZ              = /dls/labxchem/data/lb32627/lb32627-65/processing/ana
REMARK   Gelly commands       = /dls/labxchem/data/lb32627/lb32627-65/processing
REMARK output written to subdirectory = Refine_4                                
REMARK best refinement for F,SIGF with R/Rfree 0.2207/0.2458                    
REMARK header records are copied from input PDB file (apart from REMARK 3!)     
REMARK --------------------- added by autoBUSTER -------------------------------
REMARK --------------------- added by autoBUSTER -------------------------------
REMARK run at   = Tue May 23 17:02:14 BST 2023                                  
REMARK     in   = /dls/labxchem/data/lb32627/lb32627-65/processing/analysis/mode
REMARK     user = xau79897                                                      
REMARK     cmd  = \                                                             
REMARK            /dls_sw/apps/GPhL/BUSTER/20230217/autoBUSTER/bin/linux64/refin
REMARK            -p \                                                          
REMARK            /dls/labxchem/data/lb32627/lb32627-65/processing/analysis/mode
REMARK            -m \                                                          
REMARK            /dls/labxchem/data/lb32627/lb32627-65/processing/analysis/mode
REMARK            -l \                                                          
REMARK            /dls/labxchem/data/lb32627/lb32627-65/processing/analysis/mode
REMARK            -autoncs -M TLSbasic -d Refine_3                              
REMARK Files used:                                                              
REMARK   PDB              = Refine_3/pdbchk.pdb                                 
REMARK   MTZ              = /dls/labxchem/data/lb32627/lb32627-65/processing/ana
REMARK output written to subdirectory = Refine_3                                
REMARK best refinement for F,SIGF with R/Rfree 0.2330/0.2404                    
REMARK header records are copied from input PDB file (apart from REMARK 3!)     
REMARK --------------------- added by autoBUSTER -------------------------------
REMARK   2                                                            
REMARK   2 RESOLUTION.    1.41 ANGSTROMS.
REMARK   3
REMARK   3 REFINEMENT.
REMARK   3   PROGRAM     : BUSTER 2.10.4 (26-JUL-2023)
REMARK   3   AUTHORS     : BRICOGNE,BLANC,BRANDL,FLENSBURG,KELLER,
REMARK   3               : PACIOREK,ROVERSI,SHARFF,SMART,VONRHEIN,WOMACK;
REMARK   3               : MATTHEWS,TEN EYCK,TRONRUD
REMARK   3
REMARK   3  DATA USED IN REFINEMENT.
REMARK   3   RESOLUTION RANGE HIGH (ANGSTROMS) : 1.410
REMARK   3   RESOLUTION RANGE LOW  (ANGSTROMS) : 54.14
REMARK   3   DATA CUTOFF            (SIGMA(F)) : 0.000
REMARK   3   COMPLETENESS FOR RANGE        (%) : 95.8
REMARK   3   NUMBER OF REFLECTIONS             : 38526
REMARK   3
REMARK   3  FIT TO DATA USED IN REFINEMENT.
REMARK   3   CROSS-VALIDATION METHOD          : THROUGHOUT
REMARK   3   FREE R VALUE TEST SET SELECTION  : RANDOM
REMARK   3   R VALUE     (WORKING + TEST SET) : 0.2188
REMARK   3   R VALUE            (WORKING SET) : 0.2175
REMARK   3   FREE R VALUE                     : 0.2428
REMARK   3   FREE R VALUE TEST SET SIZE   (%) : 5.070
REMARK   3   FREE R VALUE TEST SET COUNT      : 1952
REMARK   3   ESTIMATED ERROR OF FREE R VALUE  : NULL
REMARK   3
REMARK   3  FIT IN THE HIGHEST RESOLUTION BIN.
REMARK   3   TOTAL NUMBER OF BINS USED           : 51
REMARK   3   BIN RESOLUTION RANGE HIGH       (A) : 1.41
REMARK   3   BIN RESOLUTION RANGE LOW        (A) : 1.43
REMARK   3   BIN COMPLETENESS (WORKING+TEST) (%) : 43.79
REMARK   3   REFLECTIONS IN BIN   (WORKING+TEST) : 771
REMARK   3   BIN R VALUE          (WORKING+TEST) : 0.4190
REMARK   3   REFLECTIONS IN BIN    (WORKING SET) : 728
REMARK   3   BIN R VALUE           (WORKING SET) : 0.4146
REMARK   3   BIN FREE R VALUE                    : 0.4938
REMARK   3   BIN FREE R VALUE TEST SET SIZE  (%) : 5.58
REMARK   3   BIN FREE R VALUE TEST SET COUNT     : 43
REMARK   3   ESTIMATED ERROR OF BIN FREE R VALUE : NULL
REMARK   3
REMARK   3  NUMBER OF NON-HYDROGEN ATOMS USED IN REFINEMENT.
REMARK   3   PROTEIN ATOMS            : 1476
REMARK   3   NUCLEIC ACID ATOMS       : 0
REMARK   3   HETEROGEN ATOMS          : 15
REMARK   3   SOLVENT ATOMS            : 141
REMARK   3
REMARK   3  B VALUES.
REMARK   3   FROM WILSON PLOT           (A**2) : 29.31
REMARK   3   MEAN B VALUE      (OVERALL, A**2) : 42.58
REMARK   3   OVERALL ANISOTROPIC B VALUE.
REMARK   3    B11 (A**2) : -4.03680
REMARK   3    B22 (A**2) : -4.03680
REMARK   3    B33 (A**2) : 8.07360
REMARK   3    B12 (A**2) : 0.00000
REMARK   3    B13 (A**2) : 0.00000
REMARK   3    B23 (A**2) : 0.00000
REMARK   3
REMARK   3  ESTIMATED COORDINATE ERROR.
REMARK   3   ESD FROM LUZZATI PLOT                    (A) : 0.25
REMARK   3   DPI (BLOW EQ-10) BASED ON R VALUE        (A) : 0.078
REMARK   3   DPI (BLOW EQ-9) BASED ON FREE R VALUE    (A) : 0.077
REMARK   3   DPI (CRUICKSHANK) BASED ON R VALUE       (A) : 0.073
REMARK   3   DPI (CRUICKSHANK) BASED ON FREE R VALUE  (A) : 0.074
REMARK   3
REMARK   3   REFERENCES: BLOW, D. (2002) ACTA CRYST D58, 792-797
REMARK   3               CRUICKSHANK, D.W.J. (1999) ACTA CRYST D55, 583-601
REMARK   3
REMARK   3  CORRELATION COEFFICIENTS.
REMARK   3   CORRELATION COEFFICIENT FO-FC      : 0.950
REMARK   3   CORRELATION COEFFICIENT FO-FC FREE : 0.947
REMARK   3
REMARK   3  X-RAY WEIGHT : 5.70
REMARK   3
REMARK   3  GEOMETRY FUNCTION.                                                  
REMARK   3   RESTRAINT LIBRARIES.                                               
REMARK   3    NUMBER OF LIBRARIES USED :   9                                    
REMARK   3    LIBRARY  1 : protgeo_eh99.dat (V1.6.4.20) 20220523  STANDARD      
REMARK   3                 AMINO ACID DICTIONARY. BONDS AND ANGLES FROM         
REMARK   3                 ENGH AND HUBER EH99. OTHER VALUES BASED ON           
REMARK   3                 PREVIOUS TNT OR TAKEN FROM CCP4. INCLUDES            
REMARK   3                 HYDROGEN ATOMS.                                      
REMARK   3    LIBRARY  2 : exoticaa.dat (V1.3.4.16) 20220523  COLLECTION        
REMARK   3                 OF NON-STANDARD AMINO ACIDS, MAINLY EH91             
REMARK   3                 WITHOUT IDEAL DISTANCE INFO                          
REMARK   3    LIBRARY  3 : nuclgeo.dat (V1.13.4.9) 20221011                     
REMARK   3    LIBRARY  4 : bcorrel.dat (V1.15.10.2) 20190616                    
REMARK   3    LIBRARY  5 : contact.dat (V1.15.12.10) 20191121                   
REMARK   3    LIBRARY  6 : idealdist_contact.dat (V1.3.4.14) 20230724           
REMARK   3                 IDEAL-DISTANCE CONTACT TERM DATA AS USED IN          
REMARK   3                 PROLSQ. VALUES USED HERE ARE BASEd ON DATA           
REMARK   3                 HARVESTING OF PDB AS OF 20190109                     
REMARK   3    LIBRARY  7 : restraints for LIG (unknown) from cif                
REMARK   3                 dictionary Z1962142017.cif; generated by GRADE       
REMARK   3                 1.2.21 (Feb 03 2022) from SMILES NCC1=COC=N1         
REMARK   3                 using MOGUL 1.8.5(274361), CSD as541be, with         
REMARK   3                 quantum mechanics RM1                                
REMARK   3    LIBRARY  8 : restraints for DMS (DIMETHYL SULFOXIDE) from         
REMARK   3                 cif dictionary DMS.cif; generated by grade2          
REMARK   3                 version 1.1.0a7 from                                 
REMARK   3                 PDB_chemical_components_definition_file              
REMARK   3                 ftp://ftp.ebi.ac.uk/pub/databases/msd/pdbechem_v     
REMARK   3                 2/D/DMS/DMS.cif using RDKit 2021.03.4                
REMARK   3                 ((DatabaseID PDB-DMS))                               
REMARK   3    LIBRARY  9 : assume.dat (V1.9.4.3) 20221011                       
REMARK   3                                                                      
REMARK   3   NUMBER OF GEOMETRIC FUNCTION TERMS DEFINED : 15                    
REMARK   3   TERM                          COUNT    WEIGHT   FUNCTION.          
REMARK   3    BOND LENGTHS              :   1661 ;   2.00 ;  HARMONIC           
REMARK   3    BOND ANGLES               :   2280 ;   2.00 ;  HARMONIC           
REMARK   3    TORSION ANGLES            :    563 ;   2.00 ;  SINUSOIDAL         
REMARK   3    TRIGONAL CARBON PLANES    :   NULL ;   NULL ;  NULL               
REMARK   3    GENERAL PLANES            :    296 ;   5.00 ;  HARMONIC           
REMARK   3    ISOTROPIC THERMAL FACTORS :   1661 ;  10.00 ;  HARMONIC           
REMARK   3    BAD NON-BONDED CONTACTS   :   NULL ;   NULL ;  NULL               
REMARK   3    IMPROPER TORSIONS         :   NULL ;   NULL ;  NULL               
REMARK   3    PSEUDOROTATION ANGLES     :   NULL ;   NULL ;  NULL               
REMARK   3    CHIRAL IMPROPER TORSION   :    210 ;   5.00 ;  SEMIHARMONIC       
REMARK   3    SUM OF OCCUPANCIES        :   NULL ;   NULL ;  NULL               
REMARK   3    UTILITY DISTANCES         :   NULL ;   NULL ;  NULL               
REMARK   3    UTILITY ANGLES            :   NULL ;   NULL ;  NULL               
REMARK   3    UTILITY TORSION           :   NULL ;   NULL ;  NULL               
REMARK   3    IDEAL-DIST CONTACT TERM   :   1419 ;   4.00 ;  SEMIHARMONIC       
REMARK   3                                                                      
REMARK   3   RMS DEVIATIONS FROM IDEAL VALUES.                                  
REMARK   3   BOND LENGTHS                       (A) : 0.011                     
REMARK   3   BOND ANGLES                  (DEGREES) : 1.09                      
REMARK   3   PEPTIDE OMEGA TORSION ANGLES (DEGREES) : 4.15                      
REMARK   3   OTHER TORSION ANGLES         (DEGREES) : 15.18                     
REMARK   3                                                                      
REMARK   3   SIMILARITY.                                                        
REMARK   3    NCS.                                                              
REMARK   3     NCS METHOD: NONE                                                 
REMARK   3    TARGET RESTRAINTS.                                                
REMARK   3     TARGET REPRESENTATION : NONE                                     
REMARK   3     TARGET STRUCTURE : NULL                                          
REMARK   3                                                                      
REMARK   3  TLS DETAILS.                                                        
REMARK   3   NUMBER OF TLS GROUPS  :            2                               
REMARK   3                                                                      
REMARK   3   TLS GROUP :            1                                           
REMARK   3    SET : { A|* }                                                     
REMARK   3    ORIGIN FOR THE GROUP (A):  -14.5896   -1.2562  -19.8771           
REMARK   3    T TENSOR                                                          
REMARK   3     T11:    0.0259 T22:    0.0088                                    
REMARK   3     T33:   -0.1480 T12:    0.1572                                    
REMARK   3     T13:    0.0860 T23:    0.0801                                    
REMARK   3    L TENSOR                                                          
REMARK   3     L11:    2.5298 L22:    2.7107                                    
REMARK   3     L33:    2.6154 L12:   -1.4799                                    
REMARK   3     L13:    0.6398 L23:    0.5720                                    
REMARK   3    S TENSOR                                                          
REMARK   3     S11:    0.4408 S12:    0.3755 S13:    0.2614                     
REMARK   3     S21:   -0.4809 S22:   -0.3750 S23:   -0.2113                     
REMARK   3     S31:   -0.0123 S32:    0.4283 S33:   -0.0658                     
REMARK   3                                                                      
REMARK   3   TLS GROUP :            2                                           
REMARK   3    SET : { B|* }                                                     
REMARK   3    ORIGIN FOR THE GROUP (A):  -18.5763    1.3584  -15.6090           
REMARK   3    T TENSOR                                                          
REMARK   3     T11:    0.0719 T22:   -0.0053                                    
REMARK   3     T33:   -0.0286 T12:    0.1068                                    
REMARK   3     T13:    0.0255 T23:    0.0224                                    
REMARK   3    L TENSOR                                                          
REMARK   3     L11:    1.4041 L22:    0.9713                                    
REMARK   3     L33:    1.7849 L12:   -0.8901                                    
REMARK   3     L13:    0.4347 L23:   -0.0920                                    
REMARK   3    S TENSOR                                                          
REMARK   3     S11:    0.2769 S12:    0.0978 S13:    0.0927                     
REMARK   3     S21:   -0.1537 S22:   -0.2673 S23:    0.0388                     
REMARK   3     S31:    0.0213 S32:    0.1603 S33:   -0.0096                     
REMARK   3                                                                      
REMARK   3  REFINEMENT NOTES.                                                   
REMARK   3   NUMBER OF REFINEMENT NOTES :   1                                   
REMARK   3   NOTE   1 : IDEAL-DIST CONTACT TERM CONTACT SETUP. ALL ATOMS        
REMARK   3               HAVE CCP4 ATOM TYPE FROM LIBRARY                       
REMARK   3
REMARK   3  OTHER REFINEMENT REMARKS: NULL
REMARK   3
REMARK 290                                                            
REMARK 290 CRYSTALLOGRAPHIC SYMMETRY                                  
REMARK 290 SYMMETRY OPERATORS FOR SPACE GROUP: P 43 2 2               
REMARK 290                                                            
REMARK 290      SYMOP   SYMMETRY                                      
REMARK 290     NNNMMM   OPERATOR                                      
REMARK 290       1555   X,Y,Z                                         
REMARK 290       2555   -X,-Y,1/2+Z                                   
REMARK 290       3555   -Y,X,3/4+Z                                    
REMARK 290       4555   Y,-X,1/4+Z                                    
REMARK 290       5555   -X,Y,-Z                                       
REMARK 290       6555   X,-Y,1/2-Z                                    
REMARK 290       7555   Y,X,1/4-Z                                     
REMARK 290       8555   -Y,-X,3/4-Z                                   
REMARK 290                                                            
REMARK 290     WHERE NNN -> OPERATOR NUMBER                           
REMARK 290           MMM -> TRANSLATION VECTOR                        
REMARK 290                                                            
REMARK 290 CRYSTALLOGRAPHIC SYMMETRY TRANSFORMATIONS                  
REMARK 290 THE FOLLOWING TRANSFORMATIONS OPERATE ON THE ATOM/HETATM   
REMARK 290 RECORDS IN THIS ENTRY TO PRODUCE CRYSTALLOGRAPHICALLY      
REMARK 290 RELATED MOLECULES.                                         
REMARK 290   SMTRY1   1  1.000000  0.000000  0.000000        0.00000
REMARK 290   SMTRY2   1  0.000000  1.000000  0.000000        0.00000
REMARK 290   SMTRY3   1  0.000000  0.000000  1.000000        0.00000
REMARK 290   SMTRY1   2 -1.000000  0.000000  0.000000        0.00000
REMARK 290   SMTRY2   2  0.000000 -1.000000  0.000000        0.00000
REMARK 290   SMTRY3   2  0.000000  0.000000  1.000000      108.27650
REMARK 290   SMTRY1   3  0.000000 -1.000000  0.000000        0.00000
REMARK 290   SMTRY2   3  1.000000  0.000000  0.000000        0.00000
REMARK 290   SMTRY3   3  0.000000  0.000000  1.000000      162.41475
REMARK 290   SMTRY1   4  0.000000  1.000000  0.000000        0.00000
REMARK 290   SMTRY2   4 -1.000000  0.000000  0.000000        0.00000
REMARK 290   SMTRY3   4  0.000000  0.000000  1.000000       54.13825
REMARK 290   SMTRY1   5 -1.000000  0.000000  0.000000        0.00000
REMARK 290   SMTRY2   5  0.000000  1.000000  0.000000        0.00000
REMARK 290   SMTRY3   5  0.000000  0.000000 -1.000000        0.00000
REMARK 290   SMTRY1   6  1.000000  0.000000  0.000000        0.00000
REMARK 290   SMTRY2   6  0.000000 -1.000000  0.000000        0.00000
REMARK 290   SMTRY3   6  0.000000  0.000000 -1.000000      108.27650
REMARK 290   SMTRY1   7  0.000000  1.000000  0.000000        0.00000
REMARK 290   SMTRY2   7  1.000000  0.000000  0.000000        0.00000
REMARK 290   SMTRY3   7  0.000000  0.000000 -1.000000       54.13825
REMARK 290   SMTRY1   8  0.000000 -1.000000  0.000000        0.00000
REMARK 290   SMTRY2   8 -1.000000  0.000000  0.000000        0.00000
REMARK 290   SMTRY3   8  0.000000  0.000000 -1.000000      162.41475
REMARK 290                                                            
REMARK 290 REMARK: NULL                                               
CRYST1   42.740   42.740  216.553  90.00  90.00  90.00 P 43 2 2                 


$$$$
Zx0386a_ligand
  PyMOL3.0          3D                             0

  7  7  0  0  0  0  0  0  0  0999 V2000
   -6.6530    5.2540  -18.5860 C   0  0  0  0  0  0  0  0  0  0  0  0
   -6.6380    5.3270  -20.0420 N   0  0  0  0  0  0  0  0  0  0  0  0
   -9.5450    4.0720  -16.6780 O   0  0  0  0  0  0  0  0  0  0  0  0
   -7.9350    4.7360  -18.0180 C   0  0  0  0  0  0  0  0  0  0  0  0
   -9.0230    4.4060  -18.8120 N   0  0  0  0  0  0  0  0  0  0  0  0
   -9.9200    4.0410  -17.9720 C   0  0  0  0  0  0  0  0  0  0  0  0
   -8.2590    4.5240  -16.7370 C   0  0  0  0  0  0  0  0  0  0  0  0
  1  4  1  0  0  0  0
  1  2  1  0  0  0  0
  3  7  4  0  0  0  0
  4  5  4  0  0  0  0
  4  7  4  0  0  0  0
  5  6  4  0  0  0  0
  3  6  4  0  0  0  0
M  END
>  <pdb_header>
COMPND    XX01ZVNS2B-x0386_B_301_XX01ZVNS2B-x1291+B+301+1


$$$$
Zx0404a
  PyMOL3.0          3D                             0

 16 17  0  0  0  0  0  0  0  0999 V2000
   -8.8090    3.7710   -8.9470 N   0  0  0  0  0  0  0  0  0  0  0  0
  -10.6770    7.4900  -13.7970 C   0  0  0  0  0  0  0  0  0  0  0  0
   -8.5380    6.5360  -14.9160 O   0  0  0  0  0  0  0  0  0  0  0  0
   -8.6990    6.1920  -12.3420 C   0  0  0  0  0  0  0  0  0  0  0  0
   -8.9250    2.1070   -6.6460 N   0  0  0  0  0  0  0  0  0  0  0  0
   -8.3120    8.5090  -13.4620 O   0  0  0  0  0  0  0  0  0  0  0  0
   -8.8350    4.8190  -12.4900 C   0  0  0  0  0  0  0  0  0  0  0  0
   -8.8250    4.0100  -11.3680 C   0  0  0  0  0  0  0  0  0  0  0  0
   -8.6730    4.5630  -10.0920 C   0  0  0  0  0  0  0  0  0  0  0  0
   -8.4720    5.9410   -9.9780 C   0  0  0  0  0  0  0  0  0  0  0  0
   -8.4860    6.7540  -11.0950 C   0  0  0  0  0  0  0  0  0  0  0  0
   -8.1780    4.2220   -7.7020 C   0  0  0  0  0  0  0  0  0  0  0  0
   -8.8550    3.5800   -6.5100 C   0  0  0  0  0  0  0  0  0  0  0  0
   -9.5570    1.6990   -7.9140 C   0  0  0  0  0  0  0  0  0  0  0  0
   -8.8140    2.3090   -9.0770 C   0  0  0  0  0  0  0  0  0  0  0  0
   -8.9420    7.2480  -13.7380 S   0  0  0  0  0  0  0  0  0  0  0  0
  1 12  1  0  0  0  0
  1 15  1  0  0  0  0
  4  7  4  0  0  0  0
  4 11  4  0  0  0  0
  5 13  1  0  0  0  0
  6 16  2  0  0  0  0
  7  8  4  0  0  0  0
  1  9  1  0  0  0  0
  8  9  4  0  0  0  0
  9 10  4  0  0  0  0
 10 11  4  0  0  0  0
 12 13  1  0  0  0  0
  5 14  1  0  0  0  0
 14 15  1  0  0  0  0
  2 16  1  0  0  0  0
  3 16  2  0  0  0  0
  4 16  1  0  0  0  0
M  END
>  <pdb_header>
HEADER    ----                                    18-MAY-23                     
TITLE     ---                                                                   
EXPDTA    X-RAY DIFFRACTION                                                     
REMARK --------------------- added by autoBUSTER ---------------------------------START
REMARK run at   = Fri Sep 15 17:07:07 BST 2023
REMARK     in   = /dls/labxchem/data/lb32627/lb32627-65/processing/analysis/model_building/XX01ZVNS2B-x0404
REMARK     user = kyf22269
REMARK     cmd  = \
REMARK            /dls_sw/apps/GPhL/BUSTER/20230726/autoBUSTER/bin/linux64/refine \
REMARK            -p \
REMARK            /dls/labxchem/data/lb32627/lb32627-65/processing/analysis/model_building/XX01ZVNS2B-x0404/cootOut/Refi
REMARK            -m \
REMARK            /dls/labxchem/data/lb32627/lb32627-65/processing/analysis/model_building/XX01ZVNS2B-x0404/XX01ZVNS2B-x
REMARK            -l \
REMARK            /dls/labxchem/data/lb32627/lb32627-65/processing/analysis/model_building/XX01ZVNS2B-x0404/Z425338146.c
REMARK            -autoncs -M TLSbasic -d Refine_11
REMARK Files used:
REMARK   PDB              = Refine_11/pdbchk.pdb
REMARK   MTZ              = /dls/labxchem/data/lb32627/lb32627-65/processing/analysis/model_building/XX01ZVNS2B-x0404/XX
REMARK output written to subdirectory = Refine_11
REMARK best refinement for F,SIGF with R/Rfree 0.2173/0.2532
REMARK header records are copied from input PDB file (apart from REMARK 3!)
REMARK --------------------- added by autoBUSTER -----------------------------------END
REMARK --------------------- added by autoBUSTER -------------------------------
REMARK run at   = Mon Sep  4 13:27:43 BST 2023                                  
REMARK     in   = /dls/labxchem/data/lb32627/lb32627-65/processing/analysis/mode
REMARK     user = kyf22269                                                      
REMARK     cmd  = \                                                             
REMARK            /dls_sw/apps/GPhL/BUSTER/20230726/autoBUSTER/bin/linux64/refin
REMARK            -p \                                                          
REMARK            /dls/labxchem/data/lb32627/lb32627-65/processing/analysis/mode
REMARK            -m \                                                          
REMARK            /dls/labxchem/data/lb32627/lb32627-65/processing/analysis/mode
REMARK            -l \                                                          
REMARK            /dls/labxchem/data/lb32627/lb32627-65/processing/analysis/mode
REMARK            -autoncs -M TLSbasic -d Refine_10                             
REMARK Files used:                                                              
REMARK   PDB              = Refine_10/pdbchk.pdb                                
REMARK   MTZ              = /dls/labxchem/data/lb32627/lb32627-65/processing/ana
REMARK output written to subdirectory = Refine_10                               
REMARK best refinement for F,SIGF with R/Rfree 0.2176/0.2475                    
REMARK header records are copied from input PDB file (apart from REMARK 3!)     
REMARK --------------------- added by autoBUSTER -------------------------------
REMARK --------------------- added by autoBUSTER -------------------------------
REMARK run at   = Mon Jun 12 20:26:37 BST 2023                                  
REMARK     in   = /dls/labxchem/data/lb32627/lb32627-65/processing/analysis/mode
REMARK     user = xau79897                                                      
REMARK     cmd  = \                                                             
REMARK            /dls_sw/apps/GPhL/BUSTER/20230217/autoBUSTER/bin/linux64/refin
REMARK            -p \                                                          
REMARK            /dls/labxchem/data/lb32627/lb32627-65/processing/analysis/mode
REMARK            -m \                                                          
REMARK            /dls/labxchem/data/lb32627/lb32627-65/processing/analysis/mode
REMARK            -l \                                                          
REMARK            /dls/labxchem/data/lb32627/lb32627-65/processing/analysis/mode
REMARK            -autoncs -M TLSbasic -B user -Gelly gelly.dat \               
REMARK            StopOnGellySanityCheckError=no -d Refine_9                    
REMARK Files used:                                                              
REMARK   PDB              = Refine_9/pdbchk.pdb                                 
REMARK   MTZ              = /dls/labxchem/data/lb32627/lb32627-65/processing/ana
REMARK   Gelly commands       = /dls/labxchem/data/lb32627/lb32627-65/processing
REMARK output written to subdirectory = Refine_9                                
REMARK best refinement for F,SIGF with R/Rfree 0.2175/0.2474                    
REMARK header records are copied from input PDB file (apart from REMARK 3!)     
REMARK --------------------- added by autoBUSTER -------------------------------
REMARK --------------------- added by autoBUSTER -------------------------------
REMARK run at   = Mon Jun 12 19:28:51 BST 2023                                  
REMARK     in   = /dls/labxchem/data/lb32627/lb32627-65/processing/analysis/mode
REMARK     user = xau79897                                                      
REMARK     cmd  = \                                                             
REMARK            /dls_sw/apps/GPhL/BUSTER/20230217/autoBUSTER/bin/linux64/refin
REMARK            -p \                                                          
REMARK            /dls/labxchem/data/lb32627/lb32627-65/processing/analysis/mode
REMARK            -m \                                                          
REMARK            /dls/labxchem/data/lb32627/lb32627-65/processing/analysis/mode
REMARK            -l \                                                          
REMARK            /dls/labxchem/data/lb32627/lb32627-65/processing/analysis/mode
REMARK            -autoncs -M TLSbasic StopOnGellySanityCheckError=no -d \      
REMARK            Refine_8                                                      
REMARK Files used:                                                              
REMARK   PDB              = Refine_8/pdbchk.pdb                                 
REMARK   MTZ              = /dls/labxchem/data/lb32627/lb32627-65/processing/ana
REMARK output written to subdirectory = Refine_8                                
REMARK best refinement for F,SIGF with R/Rfree 0.2208/0.2556                    
REMARK header records are copied from input PDB file (apart from REMARK 3!)     
REMARK --------------------- added by autoBUSTER -------------------------------
REMARK --------------------- added by autoBUSTER -------------------------------
REMARK run at   = Thu Jun  1 13:53:24 BST 2023                                  
REMARK     in   = /dls/labxchem/data/lb32627/lb32627-65/processing/analysis/mode
REMARK     user = xau79897                                                      
REMARK     cmd  = \                                                             
REMARK            /dls_sw/apps/GPhL/BUSTER/20230217/autoBUSTER/bin/linux64/refin
REMARK            -p \                                                          
REMARK            /dls/labxchem/data/lb32627/lb32627-65/processing/analysis/mode
REMARK            -m \                                                          
REMARK            /dls/labxchem/data/lb32627/lb32627-65/processing/analysis/mode
REMARK            -l \                                                          
REMARK            /dls/labxchem/data/lb32627/lb32627-65/processing/analysis/mode
REMARK            -autoncs -M TLSbasic -B user -Gelly gelly.dat \               
REMARK            StopOnGellySanityCheckError=no -d Refine_7                    
REMARK Files used:                                                              
REMARK   PDB              = Refine_7/pdbchk.pdb                                 
REMARK   MTZ              = /dls/labxchem/data/lb32627/lb32627-65/processing/ana
REMARK   Gelly commands       = /dls/labxchem/data/lb32627/lb32627-65/processing
REMARK output written to subdirectory = Refine_7                                
REMARK best refinement for F,SIGF with R/Rfree 0.2192/0.2488                    
REMARK header records are copied from input PDB file (apart from REMARK 3!)     
REMARK --------------------- added by autoBUSTER -------------------------------
REMARK --------------------- added by autoBUSTER -------------------------------
REMARK run at   = Wed May 24 20:33:13 BST 2023                                  
REMARK     in   = /dls/labxchem/data/lb32627/lb32627-65/processing/analysis/mode
REMARK     user = xau79897                                                      
REMARK     cmd  = \                                                             
REMARK            /dls_sw/apps/GPhL/BUSTER/20230217/autoBUSTER/bin/linux64/refin
REMARK            -p \                                                          
REMARK            /dls/labxchem/data/lb32627/lb32627-65/processing/analysis/mode
REMARK            -m \                                                          
REMARK            /dls/labxchem/data/lb32627/lb32627-65/processing/analysis/mode
REMARK            -l \                                                          
REMARK            /dls/labxchem/data/lb32627/lb32627-65/processing/analysis/mode
REMARK            -autoncs -M TLSbasic -WAT -B user -Gelly gelly.dat \          
REMARK            StopOnGellySanityCheckError=no -d Refine_6                    
REMARK Files used:                                                              
REMARK   PDB              = Refine_6/pdbchk.pdb                                 
REMARK   MTZ              = /dls/labxchem/data/lb32627/lb32627-65/processing/ana
REMARK   Gelly commands       = /dls/labxchem/data/lb32627/lb32627-65/processing
REMARK output written to subdirectory = Refine_6                                
REMARK best refinement for F,SIGF with R/Rfree 0.2189/0.2460                    
REMARK header records are copied from input PDB file (apart from REMARK 3!)     
REMARK --------------------- added by autoBUSTER -------------------------------
REMARK --------------------- added by autoBUSTER -------------------------------
REMARK run at   = Wed May 24 13:22:07 BST 2023                                  
REMARK     in   = /dls/labxchem/data/lb32627/lb32627-65/processing/analysis/mode
REMARK     user = xau79897                                                      
REMARK     cmd  = \                                                             
REMARK            /dls_sw/apps/GPhL/BUSTER/20230217/autoBUSTER/bin/linux64/refin
REMARK            -p \                                                          
REMARK            /dls/labxchem/data/lb32627/lb32627-65/processing/analysis/mode
REMARK            -m \                                                          
REMARK            /dls/labxchem/data/lb32627/lb32627-65/processing/analysis/mode
REMARK            -l \                                                          
REMARK            /dls/labxchem/data/lb32627/lb32627-65/processing/analysis/mode
REMARK            -autoncs -M TLSbasic -WAT -B user -Gelly gelly.dat \          
REMARK            StopOnGellySanityCheckError=no -d Refine_5                    
REMARK Files used:                                                              
REMARK   PDB              = Refine_5/pdbchk.pdb                                 
REMARK   MTZ              = /dls/labxchem/data/lb32627/lb32627-65/processing/ana
REMARK   Gelly commands       = /dls/labxchem/data/lb32627/lb32627-65/processing
REMARK output written to subdirectory = Refine_5                                
REMARK best refinement for F,SIGF with R/Rfree 0.2191/0.2477                    
REMARK header records are copied from input PDB file (apart from REMARK 3!)     
REMARK --------------------- added by autoBUSTER -------------------------------
REMARK --------------------- added by autoBUSTER -------------------------------
REMARK run at   = Tue May 23 17:23:26 BST 2023                                  
REMARK     in   = /dls/labxchem/data/lb32627/lb32627-65/processing/analysis/mode
REMARK     user = xau79897                                                      
REMARK     cmd  = \                                                             
REMARK            /dls_sw/apps/GPhL/BUSTER/20230217/autoBUSTER/bin/linux64/refin
REMARK            -p \                                                          
REMARK            /dls/labxchem/data/lb32627/lb32627-65/processing/analysis/mode
REMARK            -m \                                                          
REMARK            /dls/labxchem/data/lb32627/lb32627-65/processing/analysis/mode
REMARK            -l \                                                          
REMARK            /dls/labxchem/data/lb32627/lb32627-65/processing/analysis/mode
REMARK            -autoncs -M TLSbasic -d Refine_4                              
REMARK Files used:                                                              
REMARK   PDB              = Refine_4/pdbchk.pdb                                 
REMARK   MTZ              = /dls/labxchem/data/lb32627/lb32627-65/processing/ana
REMARK output written to subdirectory = Refine_4                                
REMARK best refinement for F,SIGF with R/Rfree 0.2323/0.2506                    
REMARK header records are copied from input PDB file (apart from REMARK 3!)     
REMARK --------------------- added by autoBUSTER -------------------------------
REMARK --------------------- added by autoBUSTER -------------------------------
REMARK run at   = Tue May 23 17:02:29 BST 2023                                  
REMARK     in   = /dls/labxchem/data/lb32627/lb32627-65/processing/analysis/mode
REMARK     user = xau79897                                                      
REMARK     cmd  = \                                                             
REMARK            /dls_sw/apps/GPhL/BUSTER/20230217/autoBUSTER/bin/linux64/refin
REMARK            -p \                                                          
REMARK            /dls/labxchem/data/lb32627/lb32627-65/processing/analysis/mode
REMARK            -m \                                                          
REMARK            /dls/labxchem/data/lb32627/lb32627-65/processing/analysis/mode
REMARK            -l \                                                          
REMARK            /dls/labxchem/data/lb32627/lb32627-65/processing/analysis/mode
REMARK            -autoncs -M TLSbasic -d Refine_3                              
REMARK Files used:                                                              
REMARK   PDB              = Refine_3/pdbchk.pdb                                 
REMARK   MTZ              = /dls/labxchem/data/lb32627/lb32627-65/processing/ana
REMARK output written to subdirectory = Refine_3                                
REMARK best refinement for F,SIGF with R/Rfree 0.2313/0.2488                    
REMARK header records are copied from input PDB file (apart from REMARK 3!)     
REMARK --------------------- added by autoBUSTER -------------------------------
REMARK   2                                                            
REMARK   2 RESOLUTION.    1.38 ANGSTROMS.
REMARK   3
REMARK   3 REFINEMENT.
REMARK   3   PROGRAM     : BUSTER 2.10.4 (26-JUL-2023)
REMARK   3   AUTHORS     : BRICOGNE,BLANC,BRANDL,FLENSBURG,KELLER,
REMARK   3               : PACIOREK,ROVERSI,SHARFF,SMART,VONRHEIN,WOMACK;
REMARK   3               : MATTHEWS,TEN EYCK,TRONRUD
REMARK   3
REMARK   3  DATA USED IN REFINEMENT.
REMARK   3   RESOLUTION RANGE HIGH (ANGSTROMS) : 1.380
REMARK   3   RESOLUTION RANGE LOW  (ANGSTROMS) : 54.14
REMARK   3   DATA CUTOFF            (SIGMA(F)) : 0.000
REMARK   3   COMPLETENESS FOR RANGE        (%) : 95.7
REMARK   3   NUMBER OF REFLECTIONS             : 40970
REMARK   3
REMARK   3  FIT TO DATA USED IN REFINEMENT.
REMARK   3   CROSS-VALIDATION METHOD          : THROUGHOUT
REMARK   3   FREE R VALUE TEST SET SELECTION  : RANDOM
REMARK   3   R VALUE     (WORKING + TEST SET) : 0.2191
REMARK   3   R VALUE            (WORKING SET) : 0.2173
REMARK   3   FREE R VALUE                     : 0.2532
REMARK   3   FREE R VALUE TEST SET SIZE   (%) : 5.080
REMARK   3   FREE R VALUE TEST SET COUNT      : 2082
REMARK   3   ESTIMATED ERROR OF FREE R VALUE  : NULL
REMARK   3
REMARK   3  FIT IN THE HIGHEST RESOLUTION BIN.
REMARK   3   TOTAL NUMBER OF BINS USED           : 51
REMARK   3   BIN RESOLUTION RANGE HIGH       (A) : 1.38
REMARK   3   BIN RESOLUTION RANGE LOW        (A) : 1.40
REMARK   3   BIN COMPLETENESS (WORKING+TEST) (%) : 39.97
REMARK   3   REFLECTIONS IN BIN   (WORKING+TEST) : 820
REMARK   3   BIN R VALUE          (WORKING+TEST) : 0.5213
REMARK   3   REFLECTIONS IN BIN    (WORKING SET) : 773
REMARK   3   BIN R VALUE           (WORKING SET) : 0.5191
REMARK   3   BIN FREE R VALUE                    : 0.5575
REMARK   3   BIN FREE R VALUE TEST SET SIZE  (%) : 5.73
REMARK   3   BIN FREE R VALUE TEST SET COUNT     : 47
REMARK   3   ESTIMATED ERROR OF BIN FREE R VALUE : NULL
REMARK   3
REMARK   3  NUMBER OF NON-HYDROGEN ATOMS USED IN REFINEMENT.
REMARK   3   PROTEIN ATOMS            : 1476
REMARK   3   NUCLEIC ACID ATOMS       : 0
REMARK   3   HETEROGEN ATOMS          : 24
REMARK   3   SOLVENT ATOMS            : 160
REMARK   3
REMARK   3  B VALUES.
REMARK   3   FROM WILSON PLOT           (A**2) : 27.85
REMARK   3   MEAN B VALUE      (OVERALL, A**2) : 41.52
REMARK   3   OVERALL ANISOTROPIC B VALUE.
REMARK   3    B11 (A**2) : -4.04750
REMARK   3    B22 (A**2) : -4.04750
REMARK   3    B33 (A**2) : 8.09490
REMARK   3    B12 (A**2) : 0.00000
REMARK   3    B13 (A**2) : 0.00000
REMARK   3    B23 (A**2) : 0.00000
REMARK   3
REMARK   3  ESTIMATED COORDINATE ERROR.
REMARK   3   ESD FROM LUZZATI PLOT                    (A) : 0.25
REMARK   3   DPI (BLOW EQ-10) BASED ON R VALUE        (A) : 0.074
REMARK   3   DPI (BLOW EQ-9) BASED ON FREE R VALUE    (A) : 0.077
REMARK   3   DPI (CRUICKSHANK) BASED ON R VALUE       (A) : 0.069
REMARK   3   DPI (CRUICKSHANK) BASED ON FREE R VALUE  (A) : 0.073
REMARK   3
REMARK   3   REFERENCES: BLOW, D. (2002) ACTA CRYST D58, 792-797
REMARK   3               CRUICKSHANK, D.W.J. (1999) ACTA CRYST D55, 583-601
REMARK   3
REMARK   3  CORRELATION COEFFICIENTS.
REMARK   3   CORRELATION COEFFICIENT FO-FC      : 0.955
REMARK   3   CORRELATION COEFFICIENT FO-FC FREE : 0.948
REMARK   3
REMARK   3  X-RAY WEIGHT : 6.21
REMARK   3
REMARK   3  GEOMETRY FUNCTION.                                                  
REMARK   3   RESTRAINT LIBRARIES.                                               
REMARK   3    NUMBER OF LIBRARIES USED :   9                                    
REMARK   3    LIBRARY  1 : protgeo_eh99.dat (V1.6.4.20) 20220523  STANDARD      
REMARK   3                 AMINO ACID DICTIONARY. BONDS AND ANGLES FROM         
REMARK   3                 ENGH AND HUBER EH99. OTHER VALUES BASED ON           
REMARK   3                 PREVIOUS TNT OR TAKEN FROM CCP4. INCLUDES            
REMARK   3                 HYDROGEN ATOMS.                                      
REMARK   3    LIBRARY  2 : exoticaa.dat (V1.3.4.16) 20220523  COLLECTION        
REMARK   3                 OF NON-STANDARD AMINO ACIDS, MAINLY EH91             
REMARK   3                 WITHOUT IDEAL DISTANCE INFO                          
REMARK   3    LIBRARY  3 : nuclgeo.dat (V1.13.4.9) 20221011                     
REMARK   3    LIBRARY  4 : bcorrel.dat (V1.15.10.2) 20190616                    
REMARK   3    LIBRARY  5 : contact.dat (V1.15.12.10) 20191121                   
REMARK   3    LIBRARY  6 : idealdist_contact.dat (V1.3.4.14) 20230724           
REMARK   3                 IDEAL-DISTANCE CONTACT TERM DATA AS USED IN          
REMARK   3                 PROLSQ. VALUES USED HERE ARE BASEd ON DATA           
REMARK   3                 HARVESTING OF PDB AS OF 20190109                     
REMARK   3    LIBRARY  7 : restraints for LIG (unknown) from cif                
REMARK   3                 dictionary Z425338146.cif; generated by GRADE        
REMARK   3                 1.2.21 (Feb 03 2022) from SMILES                     
REMARK   3                 CS(=O)(=O)C=1C=CC(=CC1)N2CCNCC2 using MOGUL          
REMARK   3                 1.8.5(274361), CSD as541be, with quantum             
REMARK   3                 mechanics RM1                                        
REMARK   3    LIBRARY  8 : restraints for DMS (DIMETHYL SULFOXIDE) from         
REMARK   3                 cif dictionary DMS.cif; generated by grade2          
REMARK   3                 version 1.1.0a7 from                                 
REMARK   3                 PDB_chemical_components_definition_file              
REMARK   3                 ftp://ftp.ebi.ac.uk/pub/databases/msd/pdbechem_v     
REMARK   3                 2/D/DMS/DMS.cif using RDKit 2021.03.4                
REMARK   3                 ((DatabaseID PDB-DMS))                               
REMARK   3    LIBRARY  9 : assume.dat (V1.9.4.3) 20221011                       
REMARK   3                                                                      
REMARK   3   NUMBER OF GEOMETRIC FUNCTION TERMS DEFINED : 15                    
REMARK   3   TERM                          COUNT    WEIGHT   FUNCTION.          
REMARK   3    BOND LENGTHS              :   1647 ;   2.00 ;  HARMONIC           
REMARK   3    BOND ANGLES               :   2257 ;   2.00 ;  HARMONIC           
REMARK   3    TORSION ANGLES            :    561 ;   2.00 ;  SINUSOIDAL         
REMARK   3    TRIGONAL CARBON PLANES    :   NULL ;   NULL ;  NULL               
REMARK   3    GENERAL PLANES            :    292 ;   5.00 ;  HARMONIC           
REMARK   3    ISOTROPIC THERMAL FACTORS :   1647 ;  10.00 ;  HARMONIC           
REMARK   3    BAD NON-BONDED CONTACTS   :   NULL ;   NULL ;  NULL               
REMARK   3    IMPROPER TORSIONS         :   NULL ;   NULL ;  NULL               
REMARK   3    PSEUDOROTATION ANGLES     :   NULL ;   NULL ;  NULL               
REMARK   3    CHIRAL IMPROPER TORSION   :    204 ;   5.00 ;  SEMIHARMONIC       
REMARK   3    SUM OF OCCUPANCIES        :   NULL ;   NULL ;  NULL               
REMARK   3    UTILITY DISTANCES         :   NULL ;   NULL ;  NULL               
REMARK   3    UTILITY ANGLES            :   NULL ;   NULL ;  NULL               
REMARK   3    UTILITY TORSION           :   NULL ;   NULL ;  NULL               
REMARK   3    IDEAL-DIST CONTACT TERM   :   1449 ;   4.00 ;  SEMIHARMONIC       
REMARK   3                                                                      
REMARK   3   RMS DEVIATIONS FROM IDEAL VALUES.                                  
REMARK   3   BOND LENGTHS                       (A) : 0.012                     
REMARK   3   BOND ANGLES                  (DEGREES) : 1.10                      
REMARK   3   PEPTIDE OMEGA TORSION ANGLES (DEGREES) : 4.23                      
REMARK   3   OTHER TORSION ANGLES         (DEGREES) : 14.37                     
REMARK   3                                                                      
REMARK   3   SIMILARITY.                                                        
REMARK   3    NCS.                                                              
REMARK   3     NCS METHOD: NONE                                                 
REMARK   3    TARGET RESTRAINTS.                                                
REMARK   3     TARGET REPRESENTATION : NONE                                     
REMARK   3     TARGET STRUCTURE : NULL                                          
REMARK   3                                                                      
REMARK   3  TLS DETAILS.                                                        
REMARK   3   NUMBER OF TLS GROUPS  :            2                               
REMARK   3                                                                      
REMARK   3   TLS GROUP :            1                                           
REMARK   3    SET : { A|* }                                                     
REMARK   3    ORIGIN FOR THE GROUP (A):  -14.6376   -1.2407  -19.8528           
REMARK   3    T TENSOR                                                          
REMARK   3     T11:    0.0340 T22:    0.0245                                    
REMARK   3     T33:   -0.1238 T12:    0.1529                                    
REMARK   3     T13:    0.0650 T23:    0.0580                                    
REMARK   3    L TENSOR                                                          
REMARK   3     L11:    2.3055 L22:    2.1747                                    
REMARK   3     L33:    2.0781 L12:   -1.2293                                    
REMARK   3     L13:    0.7486 L23:    0.4116                                    
REMARK   3    S TENSOR                                                          
REMARK   3     S11:    0.3950 S12:    0.3870 S13:    0.1976                     
REMARK   3     S21:   -0.3979 S22:   -0.3340 S23:   -0.1737                     
REMARK   3     S31:   -0.0395 S32:    0.4151 S33:   -0.0610                     
REMARK   3                                                                      
REMARK   3   TLS GROUP :            2                                           
REMARK   3    SET : { B|* }                                                     
REMARK   3    ORIGIN FOR THE GROUP (A):  -18.2712    1.3302  -15.5767           
REMARK   3    T TENSOR                                                          
REMARK   3     T11:    0.0676 T22:    0.0005                                    
REMARK   3     T33:   -0.0254 T12:    0.1050                                    
REMARK   3     T13:    0.0182 T23:    0.0190                                    
REMARK   3    L TENSOR                                                          
REMARK   3     L11:    1.2202 L22:    0.7764                                    
REMARK   3     L33:    1.5631 L12:   -0.7396                                    
REMARK   3     L13:    0.5339 L23:   -0.0386                                    
REMARK   3    S TENSOR                                                          
REMARK   3     S11:    0.2442 S12:    0.1296 S13:    0.0548                     
REMARK   3     S21:   -0.1374 S22:   -0.2246 S23:    0.0460                     
REMARK   3     S31:    0.0031 S32:    0.1636 S33:   -0.0196                     
REMARK   3                                                                      
REMARK   3  REFINEMENT NOTES.                                                   
REMARK   3   NUMBER OF REFINEMENT NOTES :   1                                   
REMARK   3   NOTE   1 : IDEAL-DIST CONTACT TERM CONTACT SETUP. ALL ATOMS        
REMARK   3               HAVE CCP4 ATOM TYPE FROM LIBRARY                       
REMARK   3
REMARK   3  OTHER REFINEMENT REMARKS: NULL
REMARK   3
REMARK 290                                                            
REMARK 290 CRYSTALLOGRAPHIC SYMMETRY                                  
REMARK 290 SYMMETRY OPERATORS FOR SPACE GROUP: P 43 2 2               
REMARK 290                                                            
REMARK 290      SYMOP   SYMMETRY                                      
REMARK 290     NNNMMM   OPERATOR                                      
REMARK 290       1555   X,Y,Z                                         
REMARK 290       2555   -X,-Y,1/2+Z                                   
REMARK 290       3555   -Y,X,3/4+Z                                    
REMARK 290       4555   Y,-X,1/4+Z                                    
REMARK 290       5555   -X,Y,-Z                                       
REMARK 290       6555   X,-Y,1/2-Z                                    
REMARK 290       7555   Y,X,1/4-Z                                     
REMARK 290       8555   -Y,-X,3/4-Z                                   
REMARK 290                                                            
REMARK 290     WHERE NNN -> OPERATOR NUMBER                           
REMARK 290           MMM -> TRANSLATION VECTOR                        
REMARK 290                                                            
REMARK 290 CRYSTALLOGRAPHIC SYMMETRY TRANSFORMATIONS                  
REMARK 290 THE FOLLOWING TRANSFORMATIONS OPERATE ON THE ATOM/HETATM   
REMARK 290 RECORDS IN THIS ENTRY TO PRODUCE CRYSTALLOGRAPHICALLY      
REMARK 290 RELATED MOLECULES.                                         
REMARK 290   SMTRY1   1  1.000000  0.000000  0.000000        0.00000
REMARK 290   SMTRY2   1  0.000000  1.000000  0.000000        0.00000
REMARK 290   SMTRY3   1  0.000000  0.000000  1.000000        0.00000
REMARK 290   SMTRY1   2 -1.000000  0.000000  0.000000        0.00000
REMARK 290   SMTRY2   2  0.000000 -1.000000  0.000000        0.00000
REMARK 290   SMTRY3   2  0.000000  0.000000  1.000000      108.28800
REMARK 290   SMTRY1   3  0.000000 -1.000000  0.000000        0.00000
REMARK 290   SMTRY2   3  1.000000  0.000000  0.000000        0.00000
REMARK 290   SMTRY3   3  0.000000  0.000000  1.000000      162.43200
REMARK 290   SMTRY1   4  0.000000  1.000000  0.000000        0.00000
REMARK 290   SMTRY2   4 -1.000000  0.000000  0.000000        0.00000
REMARK 290   SMTRY3   4  0.000000  0.000000  1.000000       54.14400
REMARK 290   SMTRY1   5 -1.000000  0.000000  0.000000        0.00000
REMARK 290   SMTRY2   5  0.000000  1.000000  0.000000        0.00000
REMARK 290   SMTRY3   5  0.000000  0.000000 -1.000000        0.00000
REMARK 290   SMTRY1   6  1.000000  0.000000  0.000000        0.00000
REMARK 290   SMTRY2   6  0.000000 -1.000000  0.000000        0.00000
REMARK 290   SMTRY3   6  0.000000  0.000000 -1.000000      108.28800
REMARK 290   SMTRY1   7  0.000000  1.000000  0.000000        0.00000
REMARK 290   SMTRY2   7  1.000000  0.000000  0.000000        0.00000
REMARK 290   SMTRY3   7  0.000000  0.000000 -1.000000       54.14400
REMARK 290   SMTRY1   8  0.000000 -1.000000  0.000000        0.00000
REMARK 290   SMTRY2   8 -1.000000  0.000000  0.000000        0.00000
REMARK 290   SMTRY3   8  0.000000  0.000000 -1.000000      162.43200
REMARK 290                                                            
REMARK 290 REMARK: NULL                                               
CRYST1   42.748   42.748  216.576  90.00  90.00  90.00 P 43 2 2                 


$$$$
Zx0404a_ligand
  PyMOL3.0          3D                             0

 16 17  0  0  0  0  0  0  0  0999 V2000
  -10.6770    7.4900  -13.7970 C   0  0  0  0  0  0  0  0  0  0  0  0
   -8.8090    3.7710   -8.9470 N   0  0  0  0  0  0  0  0  0  0  0  0
   -8.3120    8.5090  -13.4620 O   0  0  0  0  0  0  0  0  0  0  0  0
   -8.9420    7.2480  -13.7380 S   0  0  0  0  0  0  0  0  0  0  0  0
   -8.6990    6.1920  -12.3420 C   0  0  0  0  0  0  0  0  0  0  0  0
   -8.9250    2.1070   -6.6460 N   0  0  0  0  0  0  0  0  0  0  0  0
   -8.5380    6.5360  -14.9160 O   0  0  0  0  0  0  0  0  0  0  0  0
   -8.4860    6.7540  -11.0950 C   0  0  0  0  0  0  0  0  0  0  0  0
   -8.4720    5.9410   -9.9780 C   0  0  0  0  0  0  0  0  0  0  0  0
   -8.6730    4.5630  -10.0920 C   0  0  0  0  0  0  0  0  0  0  0  0
   -8.8250    4.0100  -11.3680 C   0  0  0  0  0  0  0  0  0  0  0  0
   -8.8350    4.8190  -12.4900 C   0  0  0  0  0  0  0  0  0  0  0  0
   -8.8140    2.3090   -9.0770 C   0  0  0  0  0  0  0  0  0  0  0  0
   -9.5570    1.6990   -7.9140 C   0  0  0  0  0  0  0  0  0  0  0  0
   -8.8550    3.5800   -6.5100 C   0  0  0  0  0  0  0  0  0  0  0  0
   -8.1780    4.2220   -7.7020 C   0  0  0  0  0  0  0  0  0  0  0  0
  2 13  1  0  0  0  0
  2 16  1  0  0  0  0
  3  4  2  0  0  0  0
  1  4  1  0  0  0  0
  4  5  1  0  0  0  0
  4  7  2  0  0  0  0
  5  8  4  0  0  0  0
  5 12  4  0  0  0  0
  6 15  1  0  0  0  0
  8  9  4  0  0  0  0
  9 10  4  0  0  0  0
  2 10  1  0  0  0  0
 10 11  4  0  0  0  0
 11 12  4  0  0  0  0
 13 14  1  0  0  0  0
  6 14  1  0  0  0  0
 15 16  1  0  0  0  0
M  END
>  <pdb_header>
COMPND    XX01ZVNS2B-x0404_B_301_XX01ZVNS2B-x1291+B+301+1


$$$$
Zx0422a
  PyMOL3.0          3D                             0

 11 12  0  0  0  0  0  0  0  0999 V2000
   -2.7750    5.1550  -17.8790 N   0  0  0  0  0  0  0  0  0  0  0  0
   -3.9900    5.0240  -18.4180 C   0  0  0  0  0  0  0  0  0  0  0  0
   -6.1470    4.8300  -18.5720 C   0  0  0  0  0  0  0  0  0  0  0  0
   -4.2700    4.8360  -19.7070 N   0  0  0  0  0  0  0  0  0  0  0  0
   -7.5540    4.7130  -18.2290 C   0  0  0  0  0  0  0  0  0  0  0  0
   -5.6560    4.7160  -19.7980 N   0  0  0  0  0  0  0  0  0  0  0  0
   -8.6140    4.4750  -19.0550 C   0  0  0  0  0  0  0  0  0  0  0  0
   -5.1370    5.0380  -17.6680 N   0  0  0  0  0  0  0  0  0  0  0  0
   -9.8400    4.3710  -18.3670 C   0  0  0  0  0  0  0  0  0  0  0  0
   -9.6910    4.5400  -17.0400 C   0  0  0  0  0  0  0  0  0  0  0  0
   -8.0760    4.8270  -16.6010 S   0  0  0  0  0  0  0  0  0  0  0  0
  1  2  1  0  0  0  0
  2  4  4  0  0  0  0
  2  8  4  0  0  0  0
  3  5  1  0  0  0  0
  3  6  4  0  0  0  0
  5  7  4  0  0  0  0
  5 11  4  0  0  0  0
  4  6  4  0  0  0  0
  3  8  4  0  0  0  0
  7  9  4  0  0  0  0
  9 10  4  0  0  0  0
 10 11  4  0  0  0  0
M  END
>  <pdb_header>
HEADER    ----                                    18-MAY-23                     
TITLE     ---                                                                   
EXPDTA    X-RAY DIFFRACTION                                                     
REMARK --------------------- added by autoBUSTER ---------------------------------START
REMARK run at   = Fri Sep 15 17:11:28 BST 2023
REMARK     in   = /dls/labxchem/data/lb32627/lb32627-65/processing/analysis/model_building/XX01ZVNS2B-x0422
REMARK     user = kyf22269
REMARK     cmd  = \
REMARK            /dls_sw/apps/GPhL/BUSTER/20230726/autoBUSTER/bin/linux64/refine \
REMARK            -p \
REMARK            /dls/labxchem/data/lb32627/lb32627-65/processing/analysis/model_building/XX01ZVNS2B-x0422/cootOut/Refi
REMARK            -m \
REMARK            /dls/labxchem/data/lb32627/lb32627-65/processing/analysis/model_building/XX01ZVNS2B-x0422/XX01ZVNS2B-x
REMARK            -l \
REMARK            /dls/labxchem/data/lb32627/lb32627-65/processing/analysis/model_building/XX01ZVNS2B-x0422/Z119990326.c
REMARK            -autoncs -M TLSbasic -d Refine_7
REMARK Files used:
REMARK   PDB              = Refine_7/pdbchk.pdb
REMARK   MTZ              = /dls/labxchem/data/lb32627/lb32627-65/processing/analysis/model_building/XX01ZVNS2B-x0422/XX
REMARK output written to subdirectory = Refine_7
REMARK best refinement for F,SIGF with R/Rfree 0.2232/0.2489
REMARK header records are copied from input PDB file (apart from REMARK 3!)
REMARK --------------------- added by autoBUSTER -----------------------------------END
REMARK --------------------- added by autoBUSTER -------------------------------
REMARK run at   = Mon Jun 12 20:33:42 BST 2023                                  
REMARK     in   = /dls/labxchem/data/lb32627/lb32627-65/processing/analysis/mode
REMARK     user = xau79897                                                      
REMARK     cmd  = \                                                             
REMARK            /dls_sw/apps/GPhL/BUSTER/20230217/autoBUSTER/bin/linux64/refin
REMARK            -p \                                                          
REMARK            /dls/labxchem/data/lb32627/lb32627-65/processing/analysis/mode
REMARK            -m \                                                          
REMARK            /dls/labxchem/data/lb32627/lb32627-65/processing/analysis/mode
REMARK            -l \                                                          
REMARK            /dls/labxchem/data/lb32627/lb32627-65/processing/analysis/mode
REMARK            -autoncs -M TLSbasic -B user -Gelly gelly.dat \               
REMARK            StopOnGellySanityCheckError=no -d Refine_6                    
REMARK Files used:                                                              
REMARK   PDB              = Refine_6/pdbchk.pdb                                 
REMARK   MTZ              = /dls/labxchem/data/lb32627/lb32627-65/processing/ana
REMARK   Gelly commands       = /dls/labxchem/data/lb32627/lb32627-65/processing
REMARK output written to subdirectory = Refine_6                                
REMARK best refinement for F,SIGF with R/Rfree 0.2244/0.2548                    
REMARK header records are copied from input PDB file (apart from REMARK 3!)     
REMARK --------------------- added by autoBUSTER -------------------------------
REMARK --------------------- added by autoBUSTER -------------------------------
REMARK run at   = Wed May 24 20:44:32 BST 2023                                  
REMARK     in   = /dls/labxchem/data/lb32627/lb32627-65/processing/analysis/mode
REMARK     user = xau79897                                                      
REMARK     cmd  = \                                                             
REMARK            /dls_sw/apps/GPhL/BUSTER/20230217/autoBUSTER/bin/linux64/refin
REMARK            -p \                                                          
REMARK            /dls/labxchem/data/lb32627/lb32627-65/processing/analysis/mode
REMARK            -m \                                                          
REMARK            /dls/labxchem/data/lb32627/lb32627-65/processing/analysis/mode
REMARK            -l \                                                          
REMARK            /dls/labxchem/data/lb32627/lb32627-65/processing/analysis/mode
REMARK            -autoncs -M TLSbasic -B user -Gelly gelly.dat \               
REMARK            StopOnGellySanityCheckError=no -d Refine_5                    
REMARK Files used:                                                              
REMARK   PDB              = Refine_5/pdbchk.pdb                                 
REMARK   MTZ              = /dls/labxchem/data/lb32627/lb32627-65/processing/ana
REMARK   Gelly commands       = /dls/labxchem/data/lb32627/lb32627-65/processing
REMARK output written to subdirectory = Refine_5                                
REMARK best refinement for F,SIGF with R/Rfree 0.2252/0.2543                    
REMARK header records are copied from input PDB file (apart from REMARK 3!)     
REMARK --------------------- added by autoBUSTER -------------------------------
REMARK --------------------- added by autoBUSTER -------------------------------
REMARK run at   = Wed May 24 13:25:46 BST 2023                                  
REMARK     in   = /dls/labxchem/data/lb32627/lb32627-65/processing/analysis/mode
REMARK     user = xau79897                                                      
REMARK     cmd  = \                                                             
REMARK            /dls_sw/apps/GPhL/BUSTER/20230217/autoBUSTER/bin/linux64/refin
REMARK            -p \                                                          
REMARK            /dls/labxchem/data/lb32627/lb32627-65/processing/analysis/mode
REMARK            -m \                                                          
REMARK            /dls/labxchem/data/lb32627/lb32627-65/processing/analysis/mode
REMARK            -l \                                                          
REMARK            /dls/labxchem/data/lb32627/lb32627-65/processing/analysis/mode
REMARK            -autoncs -M TLSbasic -WAT -B user -Gelly gelly.dat \          
REMARK            StopOnGellySanityCheckError=no -d Refine_4                    
REMARK Files used:                                                              
REMARK   PDB              = Refine_4/pdbchk.pdb                                 
REMARK   MTZ              = /dls/labxchem/data/lb32627/lb32627-65/processing/ana
REMARK   Gelly commands       = /dls/labxchem/data/lb32627/lb32627-65/processing
REMARK output written to subdirectory = Refine_4                                
REMARK best refinement for F,SIGF with R/Rfree 0.2254/0.2531                    
REMARK header records are copied from input PDB file (apart from REMARK 3!)     
REMARK --------------------- added by autoBUSTER -------------------------------
REMARK --------------------- added by autoBUSTER -------------------------------
REMARK run at   = Tue May 23 17:02:46 BST 2023                                  
REMARK     in   = /dls/labxchem/data/lb32627/lb32627-65/processing/analysis/mode
REMARK     user = xau79897                                                      
REMARK     cmd  = \                                                             
REMARK            /dls_sw/apps/GPhL/BUSTER/20230217/autoBUSTER/bin/linux64/refin
REMARK            -p \                                                          
REMARK            /dls/labxchem/data/lb32627/lb32627-65/processing/analysis/mode
REMARK            -m \                                                          
REMARK            /dls/labxchem/data/lb32627/lb32627-65/processing/analysis/mode
REMARK            -l \                                                          
REMARK            /dls/labxchem/data/lb32627/lb32627-65/processing/analysis/mode
REMARK            -autoncs -M TLSbasic -d Refine_3                              
REMARK Files used:                                                              
REMARK   PDB              = Refine_3/pdbchk.pdb                                 
REMARK   MTZ              = /dls/labxchem/data/lb32627/lb32627-65/processing/ana
REMARK output written to subdirectory = Refine_3                                
REMARK best refinement for F,SIGF with R/Rfree 0.2307/0.2516                    
REMARK header records are copied from input PDB file (apart from REMARK 3!)     
REMARK --------------------- added by autoBUSTER -------------------------------
REMARK   2                                                            
REMARK   2 RESOLUTION.    1.41 ANGSTROMS.
REMARK   3
REMARK   3 REFINEMENT.
REMARK   3   PROGRAM     : BUSTER 2.10.4 (26-JUL-2023)
REMARK   3   AUTHORS     : BRICOGNE,BLANC,BRANDL,FLENSBURG,KELLER,
REMARK   3               : PACIOREK,ROVERSI,SHARFF,SMART,VONRHEIN,WOMACK;
REMARK   3               : MATTHEWS,TEN EYCK,TRONRUD
REMARK   3
REMARK   3  DATA USED IN REFINEMENT.
REMARK   3   RESOLUTION RANGE HIGH (ANGSTROMS) : 1.411
REMARK   3   RESOLUTION RANGE LOW  (ANGSTROMS) : 19.33
REMARK   3   DATA CUTOFF            (SIGMA(F)) : 0.000
REMARK   3   COMPLETENESS FOR RANGE        (%) : 90.8
REMARK   3   NUMBER OF REFLECTIONS             : 36372
REMARK   3
REMARK   3  FIT TO DATA USED IN REFINEMENT.
REMARK   3   CROSS-VALIDATION METHOD          : THROUGHOUT
REMARK   3   FREE R VALUE TEST SET SELECTION  : RANDOM
REMARK   3   R VALUE     (WORKING + TEST SET) : 0.2245
REMARK   3   R VALUE            (WORKING SET) : 0.2232
REMARK   3   FREE R VALUE                     : 0.2489
REMARK   3   FREE R VALUE TEST SET SIZE   (%) : 5.070
REMARK   3   FREE R VALUE TEST SET COUNT      : 1844
REMARK   3   ESTIMATED ERROR OF FREE R VALUE  : NULL
REMARK   3
REMARK   3  FIT IN THE HIGHEST RESOLUTION BIN.
REMARK   3   TOTAL NUMBER OF BINS USED           : 51
REMARK   3   BIN RESOLUTION RANGE HIGH       (A) : 1.41
REMARK   3   BIN RESOLUTION RANGE LOW        (A) : 1.46
REMARK   3   BIN COMPLETENESS (WORKING+TEST) (%) : 17.88
REMARK   3   REFLECTIONS IN BIN   (WORKING+TEST) : 728
REMARK   3   BIN R VALUE          (WORKING+TEST) : 0.6243
REMARK   3   REFLECTIONS IN BIN    (WORKING SET) : 692
REMARK   3   BIN R VALUE           (WORKING SET) : 0.6315
REMARK   3   BIN FREE R VALUE                    : 0.4879
REMARK   3   BIN FREE R VALUE TEST SET SIZE  (%) : 4.95
REMARK   3   BIN FREE R VALUE TEST SET COUNT     : 36
REMARK   3   ESTIMATED ERROR OF BIN FREE R VALUE : NULL
REMARK   3
REMARK   3  NUMBER OF NON-HYDROGEN ATOMS USED IN REFINEMENT.
REMARK   3   PROTEIN ATOMS            : 1467
REMARK   3   NUCLEIC ACID ATOMS       : 0
REMARK   3   HETEROGEN ATOMS          : 23
REMARK   3   SOLVENT ATOMS            : 122
REMARK   3
REMARK   3  B VALUES.
REMARK   3   FROM WILSON PLOT           (A**2) : 29.67
REMARK   3   MEAN B VALUE      (OVERALL, A**2) : 47.78
REMARK   3   OVERALL ANISOTROPIC B VALUE.
REMARK   3    B11 (A**2) : -6.20750
REMARK   3    B22 (A**2) : -6.20750
REMARK   3    B33 (A**2) : 12.41490
REMARK   3    B12 (A**2) : 0.00000
REMARK   3    B13 (A**2) : 0.00000
REMARK   3    B23 (A**2) : 0.00000
REMARK   3
REMARK   3  ESTIMATED COORDINATE ERROR.
REMARK   3   ESD FROM LUZZATI PLOT                    (A) : 0.38
REMARK   3   DPI (BLOW EQ-10) BASED ON R VALUE        (A) : 0.082
REMARK   3   DPI (BLOW EQ-9) BASED ON FREE R VALUE    (A) : 0.082
REMARK   3   DPI (CRUICKSHANK) BASED ON R VALUE       (A) : 0.078
REMARK   3   DPI (CRUICKSHANK) BASED ON FREE R VALUE  (A) : 0.079
REMARK   3
REMARK   3   REFERENCES: BLOW, D. (2002) ACTA CRYST D58, 792-797
REMARK   3               CRUICKSHANK, D.W.J. (1999) ACTA CRYST D55, 583-601
REMARK   3
REMARK   3  CORRELATION COEFFICIENTS.
REMARK   3   CORRELATION COEFFICIENT FO-FC      : 0.949
REMARK   3   CORRELATION COEFFICIENT FO-FC FREE : 0.941
REMARK   3
REMARK   3  X-RAY WEIGHT : 6.16
REMARK   3
REMARK   3  GEOMETRY FUNCTION.                                                  
REMARK   3   RESTRAINT LIBRARIES.                                               
REMARK   3    NUMBER OF LIBRARIES USED :   9                                    
REMARK   3    LIBRARY  1 : protgeo_eh99.dat (V1.6.4.20) 20220523  STANDARD      
REMARK   3                 AMINO ACID DICTIONARY. BONDS AND ANGLES FROM         
REMARK   3                 ENGH AND HUBER EH99. OTHER VALUES BASED ON           
REMARK   3                 PREVIOUS TNT OR TAKEN FROM CCP4. INCLUDES            
REMARK   3                 HYDROGEN ATOMS.                                      
REMARK   3    LIBRARY  2 : exoticaa.dat (V1.3.4.16) 20220523  COLLECTION        
REMARK   3                 OF NON-STANDARD AMINO ACIDS, MAINLY EH91             
REMARK   3                 WITHOUT IDEAL DISTANCE INFO                          
REMARK   3    LIBRARY  3 : nuclgeo.dat (V1.13.4.9) 20221011                     
REMARK   3    LIBRARY  4 : bcorrel.dat (V1.15.10.2) 20190616                    
REMARK   3    LIBRARY  5 : contact.dat (V1.15.12.10) 20191121                   
REMARK   3    LIBRARY  6 : idealdist_contact.dat (V1.3.4.14) 20230724           
REMARK   3                 IDEAL-DISTANCE CONTACT TERM DATA AS USED IN          
REMARK   3                 PROLSQ. VALUES USED HERE ARE BASEd ON DATA           
REMARK   3                 HARVESTING OF PDB AS OF 20190109                     
REMARK   3    LIBRARY  7 : restraints for LIG (unknown) from cif                
REMARK   3                 dictionary Z119990326.cif; generated by GRADE        
REMARK   3                 1.2.21 (Feb 03 2022) from SMILES                     
REMARK   3                 NC1=NN=C(N1)C2=CC=CS2 using MOGUL                    
REMARK   3                 1.8.5(274361), CSD as541be, with quantum             
REMARK   3                 mechanics RM1                                        
REMARK   3    LIBRARY  8 : restraints for DMS (DIMETHYL SULFOXIDE) from         
REMARK   3                 cif dictionary DMS.cif; generated by grade2          
REMARK   3                 version 1.1.0a7 from                                 
REMARK   3                 PDB_chemical_components_definition_file              
REMARK   3                 ftp://ftp.ebi.ac.uk/pub/databases/msd/pdbechem_v     
REMARK   3                 2/D/DMS/DMS.cif using RDKit 2021.03.4                
REMARK   3                 ((DatabaseID PDB-DMS))                               
REMARK   3    LIBRARY  9 : assume.dat (V1.9.4.3) 20221011                       
REMARK   3                                                                      
REMARK   3   NUMBER OF GEOMETRIC FUNCTION TERMS DEFINED : 15                    
REMARK   3   TERM                          COUNT    WEIGHT   FUNCTION.          
REMARK   3    BOND LENGTHS              :   1636 ;   2.00 ;  HARMONIC           
REMARK   3    BOND ANGLES               :   2240 ;   2.00 ;  HARMONIC           
REMARK   3    TORSION ANGLES            :    550 ;   2.00 ;  SINUSOIDAL         
REMARK   3    TRIGONAL CARBON PLANES    :   NULL ;   NULL ;  NULL               
REMARK   3    GENERAL PLANES            :    296 ;   5.00 ;  HARMONIC           
REMARK   3    ISOTROPIC THERMAL FACTORS :   1636 ;  10.00 ;  HARMONIC           
REMARK   3    BAD NON-BONDED CONTACTS   :   NULL ;   NULL ;  NULL               
REMARK   3    IMPROPER TORSIONS         :   NULL ;   NULL ;  NULL               
REMARK   3    PSEUDOROTATION ANGLES     :   NULL ;   NULL ;  NULL               
REMARK   3    CHIRAL IMPROPER TORSION   :    203 ;   5.00 ;  SEMIHARMONIC       
REMARK   3    SUM OF OCCUPANCIES        :   NULL ;   NULL ;  NULL               
REMARK   3    UTILITY DISTANCES         :   NULL ;   NULL ;  NULL               
REMARK   3    UTILITY ANGLES            :   NULL ;   NULL ;  NULL               
REMARK   3    UTILITY TORSION           :   NULL ;   NULL ;  NULL               
REMARK   3    IDEAL-DIST CONTACT TERM   :   1387 ;   4.00 ;  SEMIHARMONIC       
REMARK   3                                                                      
REMARK   3   RMS DEVIATIONS FROM IDEAL VALUES.                                  
REMARK   3   BOND LENGTHS                       (A) : 0.011                     
REMARK   3   BOND ANGLES                  (DEGREES) : 1.08                      
REMARK   3   PEPTIDE OMEGA TORSION ANGLES (DEGREES) : 4.10                      
REMARK   3   OTHER TORSION ANGLES         (DEGREES) : 15.70                     
REMARK   3                                                                      
REMARK   3   SIMILARITY.                                                        
REMARK   3    NCS.                                                              
REMARK   3     NCS METHOD: NONE                                                 
REMARK   3    TARGET RESTRAINTS.                                                
REMARK   3     TARGET REPRESENTATION : NONE                                     
REMARK   3     TARGET STRUCTURE : NULL                                          
REMARK   3                                                                      
REMARK   3  TLS DETAILS.                                                        
REMARK   3   NUMBER OF TLS GROUPS  :            2                               
REMARK   3                                                                      
REMARK   3   TLS GROUP :            1                                           
REMARK   3    SET : { A|* }                                                     
REMARK   3    ORIGIN FOR THE GROUP (A):  -14.6280   -1.3881  -19.8633           
REMARK   3    T TENSOR                                                          
REMARK   3     T11:    0.0166 T22:   -0.0159                                    
REMARK   3     T33:   -0.1811 T12:    0.1397                                    
REMARK   3     T13:    0.0774 T23:    0.0649                                    
REMARK   3    L TENSOR                                                          
REMARK   3     L11:    2.9953 L22:    2.9404                                    
REMARK   3     L33:    3.3825 L12:   -1.7718                                    
REMARK   3     L13:    0.5260 L23:    0.6856                                    
REMARK   3    S TENSOR                                                          
REMARK   3     S11:    0.4476 S12:    0.3727 S13:    0.2064                     
REMARK   3     S21:   -0.5327 S22:   -0.3841 S23:   -0.2006                     
REMARK   3     S31:   -0.0875 S32:    0.4965 S33:   -0.0635                     
REMARK   3                                                                      
REMARK   3   TLS GROUP :            2                                           
REMARK   3    SET : { B|* }                                                     
REMARK   3    ORIGIN FOR THE GROUP (A):  -18.1454    1.2887  -15.7253           
REMARK   3    T TENSOR                                                          
REMARK   3     T11:    0.0810 T22:   -0.0006                                    
REMARK   3     T33:   -0.0277 T12:    0.1100                                    
REMARK   3     T13:    0.0168 T23:    0.0197                                    
REMARK   3    L TENSOR                                                          
REMARK   3     L11:    1.3556 L22:    1.1801                                    
REMARK   3     L33:    2.0575 L12:   -1.1471                                    
REMARK   3     L13:    0.4365 L23:    0.1277                                    
REMARK   3    S TENSOR                                                          
REMARK   3     S11:    0.2917 S12:    0.1594 S13:    0.0468                     
REMARK   3     S21:   -0.2086 S22:   -0.2950 S23:    0.0255                     
REMARK   3     S31:   -0.0841 S32:    0.1606 S33:    0.0033                     
REMARK   3                                                                      
REMARK   3  REFINEMENT NOTES.                                                   
REMARK   3   NUMBER OF REFINEMENT NOTES :   1                                   
REMARK   3   NOTE   1 : IDEAL-DIST CONTACT TERM CONTACT SETUP. ALL ATOMS        
REMARK   3               HAVE CCP4 ATOM TYPE FROM LIBRARY                       
REMARK   3
REMARK   3  OTHER REFINEMENT REMARKS: NULL
REMARK   3
REMARK 290                                                            
REMARK 290 CRYSTALLOGRAPHIC SYMMETRY                                  
REMARK 290 SYMMETRY OPERATORS FOR SPACE GROUP: P 43 2 2               
REMARK 290                                                            
REMARK 290      SYMOP   SYMMETRY                                      
REMARK 290     NNNMMM   OPERATOR                                      
REMARK 290       1555   X,Y,Z                                         
REMARK 290       2555   -X,-Y,1/2+Z                                   
REMARK 290       3555   -Y,X,3/4+Z                                    
REMARK 290       4555   Y,-X,1/4+Z                                    
REMARK 290       5555   -X,Y,-Z                                       
REMARK 290       6555   X,-Y,1/2-Z                                    
REMARK 290       7555   Y,X,1/4-Z                                     
REMARK 290       8555   -Y,-X,3/4-Z                                   
REMARK 290                                                            
REMARK 290     WHERE NNN -> OPERATOR NUMBER                           
REMARK 290           MMM -> TRANSLATION VECTOR                        
REMARK 290                                                            
REMARK 290 CRYSTALLOGRAPHIC SYMMETRY TRANSFORMATIONS                  
REMARK 290 THE FOLLOWING TRANSFORMATIONS OPERATE ON THE ATOM/HETATM   
REMARK 290 RECORDS IN THIS ENTRY TO PRODUCE CRYSTALLOGRAPHICALLY      
REMARK 290 RELATED MOLECULES.                                         
REMARK 290   SMTRY1   1  1.000000  0.000000  0.000000        0.00000
REMARK 290   SMTRY2   1  0.000000  1.000000  0.000000        0.00000
REMARK 290   SMTRY3   1  0.000000  0.000000  1.000000        0.00000
REMARK 290   SMTRY1   2 -1.000000  0.000000  0.000000        0.00000
REMARK 290   SMTRY2   2  0.000000 -1.000000  0.000000        0.00000
REMARK 290   SMTRY3   2  0.000000  0.000000  1.000000      108.36300
REMARK 290   SMTRY1   3  0.000000 -1.000000  0.000000        0.00000
REMARK 290   SMTRY2   3  1.000000  0.000000  0.000000        0.00000
REMARK 290   SMTRY3   3  0.000000  0.000000  1.000000      162.54450
REMARK 290   SMTRY1   4  0.000000  1.000000  0.000000        0.00000
REMARK 290   SMTRY2   4 -1.000000  0.000000  0.000000        0.00000
REMARK 290   SMTRY3   4  0.000000  0.000000  1.000000       54.18150
REMARK 290   SMTRY1   5 -1.000000  0.000000  0.000000        0.00000
REMARK 290   SMTRY2   5  0.000000  1.000000  0.000000        0.00000
REMARK 290   SMTRY3   5  0.000000  0.000000 -1.000000        0.00000
REMARK 290   SMTRY1   6  1.000000  0.000000  0.000000        0.00000
REMARK 290   SMTRY2   6  0.000000 -1.000000  0.000000        0.00000
REMARK 290   SMTRY3   6  0.000000  0.000000 -1.000000      108.36300
REMARK 290   SMTRY1   7  0.000000  1.000000  0.000000        0.00000
REMARK 290   SMTRY2   7  1.000000  0.000000  0.000000        0.00000
REMARK 290   SMTRY3   7  0.000000  0.000000 -1.000000       54.18150
REMARK 290   SMTRY1   8  0.000000 -1.000000  0.000000        0.00000
REMARK 290   SMTRY2   8 -1.000000  0.000000  0.000000        0.00000
REMARK 290   SMTRY3   8  0.000000  0.000000 -1.000000      162.54450
REMARK 290                                                            
REMARK 290 REMARK: NULL                                               
CRYST1   42.705   42.705  216.726  90.00  90.00  90.00 P 43 2 2                 


$$$$
Zx0422a_ligand
  PyMOL3.0          3D                             0

 11 12  0  0  0  0  0  0  0  0999 V2000
   -3.9900    5.0240  -18.4180 C   0  0  0  0  0  0  0  0  0  0  0  0
   -2.7750    5.1550  -17.8790 N   0  0  0  0  0  0  0  0  0  0  0  0
   -8.0760    4.8270  -16.6010 S   0  0  0  0  0  0  0  0  0  0  0  0
   -6.1470    4.8300  -18.5720 C   0  0  0  0  0  0  0  0  0  0  0  0
   -5.1370    5.0380  -17.6680 N   0  0  0  0  0  0  0  0  0  0  0  0
   -7.5540    4.7130  -18.2290 C   0  0  0  0  0  0  0  0  0  0  0  0
   -5.6560    4.7160  -19.7980 N   0  0  0  0  0  0  0  0  0  0  0  0
   -9.6910    4.5400  -17.0400 C   0  0  0  0  0  0  0  0  0  0  0  0
   -4.2700    4.8360  -19.7070 N   0  0  0  0  0  0  0  0  0  0  0  0
   -9.8400    4.3710  -18.3670 C   0  0  0  0  0  0  0  0  0  0  0  0
   -8.6140    4.4750  -19.0550 C   0  0  0  0  0  0  0  0  0  0  0  0
  1  5  4  0  0  0  0
  1  9  4  0  0  0  0
  1  2  1  0  0  0  0
  3  8  4  0  0  0  0
  4  6  1  0  0  0  0
  4  7  4  0  0  0  0
  4  5  4  0  0  0  0
  3  6  4  0  0  0  0
  6 11  4  0  0  0  0
  7  9  4  0  0  0  0
  8 10  4  0  0  0  0
 10 11  4  0  0  0  0
M  END
>  <pdb_header>
COMPND    XX01ZVNS2B-x0422_B_301_XX01ZVNS2B-x1291+B+301+1


$$$$
Zx0425a
  PyMOL3.0          3D                             0

 11 11  0  0  0  0  0  0  0  0999 V2000
   -8.7490    4.6350  -17.5140 N   0  0  0  0  0  0  0  0  0  0  0  0
   -9.1360    4.6090  -16.1100 C   0  0  0  0  0  0  0  0  0  0  0  0
   -9.7940    4.3200  -18.4790 C   0  0  0  0  0  0  0  0  0  0  0  0
   -2.7060    4.9870  -17.0120 N   0  0  0  0  0  0  0  0  0  0  0  0
   -7.4670    4.9160  -17.8980 C   0  0  0  0  0  0  0  0  0  0  0  0
   -7.2510    5.1530  -19.2030 N   0  0  0  0  0  0  0  0  0  0  0  0
   -6.4390    4.9210  -16.9420 C   0  0  0  0  0  0  0  0  0  0  0  0
   -5.1340    5.1650  -17.3580 C   0  0  0  0  0  0  0  0  0  0  0  0
   -3.9990    5.1760  -16.3570 C   0  0  0  0  0  0  0  0  0  0  0  0
   -4.9130    5.4000  -18.7070 C   0  0  0  0  0  0  0  0  0  0  0  0
   -5.9850    5.3910  -19.5800 C   0  0  0  0  0  0  0  0  0  0  0  0
  1  2  1  0  0  0  0
  1  3  1  0  0  0  0
  4  9  1  0  0  0  0
  1  5  1  0  0  0  0
  5  6  4  0  0  0  0
  5  7  4  0  0  0  0
  7  8  4  0  0  0  0
  8 10  4  0  0  0  0
  8  9  1  0  0  0  0
 10 11  4  0  0  0  0
  6 11  4  0  0  0  0
M  END
>  <pdb_header>
HEADER    ----                                    18-MAY-23                     
TITLE     ---                                                                   
EXPDTA    X-RAY DIFFRACTION                                                     
REMARK --------------------- added by autoBUSTER ---------------------------------START
REMARK run at   = Fri Sep 15 17:22:17 BST 2023
REMARK     in   = /dls/labxchem/data/lb32627/lb32627-65/processing/analysis/model_building/XX01ZVNS2B-x0425
REMARK     user = kyf22269
REMARK     cmd  = \
REMARK            /dls_sw/apps/GPhL/BUSTER/20230726/autoBUSTER/bin/linux64/refine \
REMARK            -p \
REMARK            /dls/labxchem/data/lb32627/lb32627-65/processing/analysis/model_building/XX01ZVNS2B-x0425/cootOut/Refi
REMARK            -m \
REMARK            /dls/labxchem/data/lb32627/lb32627-65/processing/analysis/model_building/XX01ZVNS2B-x0425/XX01ZVNS2B-x
REMARK            -l \
REMARK            /dls/labxchem/data/lb32627/lb32627-65/processing/analysis/model_building/XX01ZVNS2B-x0425/Z270758780.c
REMARK            -autoncs -M TLSbasic -d Refine_8
REMARK Files used:
REMARK   PDB              = Refine_8/pdbchk.pdb
REMARK   MTZ              = /dls/labxchem/data/lb32627/lb32627-65/processing/analysis/model_building/XX01ZVNS2B-x0425/XX
REMARK output written to subdirectory = Refine_8
REMARK best refinement for F,SIGF with R/Rfree 0.2227/0.2487
REMARK header records are copied from input PDB file (apart from REMARK 3!)
REMARK --------------------- added by autoBUSTER -----------------------------------END
REMARK --------------------- added by autoBUSTER -------------------------------
REMARK run at   = Mon Jun 12 20:40:14 BST 2023                                  
REMARK     in   = /dls/labxchem/data/lb32627/lb32627-65/processing/analysis/mode
REMARK     user = xau79897                                                      
REMARK     cmd  = \                                                             
REMARK            /dls_sw/apps/GPhL/BUSTER/20230217/autoBUSTER/bin/linux64/refin
REMARK            -p \                                                          
REMARK            /dls/labxchem/data/lb32627/lb32627-65/processing/analysis/mode
REMARK            -m \                                                          
REMARK            /dls/labxchem/data/lb32627/lb32627-65/processing/analysis/mode
REMARK            -l \                                                          
REMARK            /dls/labxchem/data/lb32627/lb32627-65/processing/analysis/mode
REMARK            -autoncs -M TLSbasic StopOnGellySanityCheckError=no -d \      
REMARK            Refine_7                                                      
REMARK Files used:                                                              
REMARK   PDB              = Refine_7/pdbchk.pdb                                 
REMARK   MTZ              = /dls/labxchem/data/lb32627/lb32627-65/processing/ana
REMARK output written to subdirectory = Refine_7                                
REMARK best refinement for F,SIGF with R/Rfree 0.2242/0.2543                    
REMARK header records are copied from input PDB file (apart from REMARK 3!)     
REMARK --------------------- added by autoBUSTER -------------------------------
REMARK --------------------- added by autoBUSTER -------------------------------
REMARK run at   = Thu Jun  1 15:53:41 BST 2023                                  
REMARK     in   = /dls/labxchem/data/lb32627/lb32627-65/processing/analysis/mode
REMARK     user = xau79897                                                      
REMARK     cmd  = \                                                             
REMARK            /dls_sw/apps/GPhL/BUSTER/20230217/autoBUSTER/bin/linux64/refin
REMARK            -p \                                                          
REMARK            /dls/labxchem/data/lb32627/lb32627-65/processing/analysis/mode
REMARK            -m \                                                          
REMARK            /dls/labxchem/data/lb32627/lb32627-65/processing/analysis/mode
REMARK            -l \                                                          
REMARK            /dls/labxchem/data/lb32627/lb32627-65/processing/analysis/mode
REMARK            -autoncs -M TLSbasic -B user -Gelly gelly.dat \               
REMARK            StopOnGellySanityCheckError=no -d Refine_6                    
REMARK Files used:                                                              
REMARK   PDB              = Refine_6/pdbchk.pdb                                 
REMARK   MTZ              = /dls/labxchem/data/lb32627/lb32627-65/processing/ana
REMARK   Gelly commands       = /dls/labxchem/data/lb32627/lb32627-65/processing
REMARK output written to subdirectory = Refine_6                                
REMARK best refinement for F,SIGF with R/Rfree 0.2261/0.2574                    
REMARK header records are copied from input PDB file (apart from REMARK 3!)     
REMARK --------------------- added by autoBUSTER -------------------------------
REMARK --------------------- added by autoBUSTER -------------------------------
REMARK run at   = Wed May 24 20:52:59 BST 2023                                  
REMARK     in   = /dls/labxchem/data/lb32627/lb32627-65/processing/analysis/mode
REMARK     user = xau79897                                                      
REMARK     cmd  = \                                                             
REMARK            /dls_sw/apps/GPhL/BUSTER/20230217/autoBUSTER/bin/linux64/refin
REMARK            -p \                                                          
REMARK            /dls/labxchem/data/lb32627/lb32627-65/processing/analysis/mode
REMARK            -m \                                                          
REMARK            /dls/labxchem/data/lb32627/lb32627-65/processing/analysis/mode
REMARK            -l \                                                          
REMARK            /dls/labxchem/data/lb32627/lb32627-65/processing/analysis/mode
REMARK            -autoncs -M TLSbasic -WAT -B user -Gelly gelly.dat \          
REMARK            StopOnGellySanityCheckError=no -d Refine_5                    
REMARK Files used:                                                              
REMARK   PDB              = Refine_5/pdbchk.pdb                                 
REMARK   MTZ              = /dls/labxchem/data/lb32627/lb32627-65/processing/ana
REMARK   Gelly commands       = /dls/labxchem/data/lb32627/lb32627-65/processing
REMARK output written to subdirectory = Refine_5                                
REMARK best refinement for F,SIGF with R/Rfree 0.2265/0.2551                    
REMARK header records are copied from input PDB file (apart from REMARK 3!)     
REMARK --------------------- added by autoBUSTER -------------------------------
REMARK --------------------- added by autoBUSTER -------------------------------
REMARK run at   = Wed May 24 13:27:12 BST 2023                                  
REMARK     in   = /dls/labxchem/data/lb32627/lb32627-65/processing/analysis/mode
REMARK     user = xau79897                                                      
REMARK     cmd  = \                                                             
REMARK            /dls_sw/apps/GPhL/BUSTER/20230217/autoBUSTER/bin/linux64/refin
REMARK            -p \                                                          
REMARK            /dls/labxchem/data/lb32627/lb32627-65/processing/analysis/mode
REMARK            -m \                                                          
REMARK            /dls/labxchem/data/lb32627/lb32627-65/processing/analysis/mode
REMARK            -l \                                                          
REMARK            /dls/labxchem/data/lb32627/lb32627-65/processing/analysis/mode
REMARK            -autoncs -M TLSbasic -WAT -B user -Gelly gelly.dat \          
REMARK            StopOnGellySanityCheckError=no -d Refine_4                    
REMARK Files used:                                                              
REMARK   PDB              = Refine_4/pdbchk.pdb                                 
REMARK   MTZ              = /dls/labxchem/data/lb32627/lb32627-65/processing/ana
REMARK   Gelly commands       = /dls/labxchem/data/lb32627/lb32627-65/processing
REMARK output written to subdirectory = Refine_4                                
REMARK best refinement for F,SIGF with R/Rfree 0.2281/0.2577                    
REMARK header records are copied from input PDB file (apart from REMARK 3!)     
REMARK --------------------- added by autoBUSTER -------------------------------
REMARK --------------------- added by autoBUSTER -------------------------------
REMARK run at   = Tue May 23 17:03:00 BST 2023                                  
REMARK     in   = /dls/labxchem/data/lb32627/lb32627-65/processing/analysis/mode
REMARK     user = xau79897                                                      
REMARK     cmd  = \                                                             
REMARK            /dls_sw/apps/GPhL/BUSTER/20230217/autoBUSTER/bin/linux64/refin
REMARK            -p \                                                          
REMARK            /dls/labxchem/data/lb32627/lb32627-65/processing/analysis/mode
REMARK            -m \                                                          
REMARK            /dls/labxchem/data/lb32627/lb32627-65/processing/analysis/mode
REMARK            -l \                                                          
REMARK            /dls/labxchem/data/lb32627/lb32627-65/processing/analysis/mode
REMARK            -autoncs -M TLSbasic -d Refine_3                              
REMARK Files used:                                                              
REMARK   PDB              = Refine_3/pdbchk.pdb                                 
REMARK   MTZ              = /dls/labxchem/data/lb32627/lb32627-65/processing/ana
REMARK output written to subdirectory = Refine_3                                
REMARK best refinement for F,SIGF with R/Rfree 0.2337/0.2621                    
REMARK header records are copied from input PDB file (apart from REMARK 3!)     
REMARK --------------------- added by autoBUSTER -------------------------------
REMARK   2                                                            
REMARK   2 RESOLUTION.    1.52 ANGSTROMS.
REMARK   3
REMARK   3 REFINEMENT.
REMARK   3   PROGRAM     : BUSTER 2.10.4 (26-JUL-2023)
REMARK   3   AUTHORS     : BRICOGNE,BLANC,BRANDL,FLENSBURG,KELLER,
REMARK   3               : PACIOREK,ROVERSI,SHARFF,SMART,VONRHEIN,WOMACK;
REMARK   3               : MATTHEWS,TEN EYCK,TRONRUD
REMARK   3
REMARK   3  DATA USED IN REFINEMENT.
REMARK   3   RESOLUTION RANGE HIGH (ANGSTROMS) : 1.521
REMARK   3   RESOLUTION RANGE LOW  (ANGSTROMS) : 19.34
REMARK   3   DATA CUTOFF            (SIGMA(F)) : 0.000
REMARK   3   COMPLETENESS FOR RANGE        (%) : 97.3
REMARK   3   NUMBER OF REFLECTIONS             : 31443
REMARK   3
REMARK   3  FIT TO DATA USED IN REFINEMENT.
REMARK   3   CROSS-VALIDATION METHOD          : THROUGHOUT
REMARK   3   FREE R VALUE TEST SET SELECTION  : RANDOM
REMARK   3   R VALUE     (WORKING + TEST SET) : 0.2240
REMARK   3   R VALUE            (WORKING SET) : 0.2227
REMARK   3   FREE R VALUE                     : 0.2487
REMARK   3   FREE R VALUE TEST SET SIZE   (%) : 5.100
REMARK   3   FREE R VALUE TEST SET COUNT      : 1604
REMARK   3   ESTIMATED ERROR OF FREE R VALUE  : NULL
REMARK   3
REMARK   3  FIT IN THE HIGHEST RESOLUTION BIN.
REMARK   3   TOTAL NUMBER OF BINS USED           : 51
REMARK   3   BIN RESOLUTION RANGE HIGH       (A) : 1.52
REMARK   3   BIN RESOLUTION RANGE LOW        (A) : 1.54
REMARK   3   BIN COMPLETENESS (WORKING+TEST) (%) : 45.89
REMARK   3   REFLECTIONS IN BIN   (WORKING+TEST) : 629
REMARK   3   BIN R VALUE          (WORKING+TEST) : 0.5595
REMARK   3   REFLECTIONS IN BIN    (WORKING SET) : 589
REMARK   3   BIN R VALUE           (WORKING SET) : 0.5634
REMARK   3   BIN FREE R VALUE                    : 0.5009
REMARK   3   BIN FREE R VALUE TEST SET SIZE  (%) : 6.36
REMARK   3   BIN FREE R VALUE TEST SET COUNT     : 40
REMARK   3   ESTIMATED ERROR OF BIN FREE R VALUE : NULL
REMARK   3
REMARK   3  NUMBER OF NON-HYDROGEN ATOMS USED IN REFINEMENT.
REMARK   3   PROTEIN ATOMS            : 1476
REMARK   3   NUCLEIC ACID ATOMS       : 0
REMARK   3   HETEROGEN ATOMS          : 19
REMARK   3   SOLVENT ATOMS            : 141
REMARK   3
REMARK   3  B VALUES.
REMARK   3   FROM WILSON PLOT           (A**2) : 32.88
REMARK   3   MEAN B VALUE      (OVERALL, A**2) : 48.09
REMARK   3   OVERALL ANISOTROPIC B VALUE.
REMARK   3    B11 (A**2) : -5.38500
REMARK   3    B22 (A**2) : -5.38500
REMARK   3    B33 (A**2) : 10.77010
REMARK   3    B12 (A**2) : 0.00000
REMARK   3    B13 (A**2) : 0.00000
REMARK   3    B23 (A**2) : 0.00000
REMARK   3
REMARK   3  ESTIMATED COORDINATE ERROR.
REMARK   3   ESD FROM LUZZATI PLOT                    (A) : 0.30
REMARK   3   DPI (BLOW EQ-10) BASED ON R VALUE        (A) : 0.097
REMARK   3   DPI (BLOW EQ-9) BASED ON FREE R VALUE    (A) : 0.094
REMARK   3   DPI (CRUICKSHANK) BASED ON R VALUE       (A) : 0.091
REMARK   3   DPI (CRUICKSHANK) BASED ON FREE R VALUE  (A) : 0.090
REMARK   3
REMARK   3   REFERENCES: BLOW, D. (2002) ACTA CRYST D58, 792-797
REMARK   3               CRUICKSHANK, D.W.J. (1999) ACTA CRYST D55, 583-601
REMARK   3
REMARK   3  CORRELATION COEFFICIENTS.
REMARK   3   CORRELATION COEFFICIENT FO-FC      : 0.951
REMARK   3   CORRELATION COEFFICIENT FO-FC FREE : 0.943
REMARK   3
REMARK   3  X-RAY WEIGHT : 5.64
REMARK   3
REMARK   3  GEOMETRY FUNCTION.                                                  
REMARK   3   RESTRAINT LIBRARIES.                                               
REMARK   3    NUMBER OF LIBRARIES USED :   9                                    
REMARK   3    LIBRARY  1 : protgeo_eh99.dat (V1.6.4.20) 20220523  STANDARD      
REMARK   3                 AMINO ACID DICTIONARY. BONDS AND ANGLES FROM         
REMARK   3                 ENGH AND HUBER EH99. OTHER VALUES BASED ON           
REMARK   3                 PREVIOUS TNT OR TAKEN FROM CCP4. INCLUDES            
REMARK   3                 HYDROGEN ATOMS.                                      
REMARK   3    LIBRARY  2 : exoticaa.dat (V1.3.4.16) 20220523  COLLECTION        
REMARK   3                 OF NON-STANDARD AMINO ACIDS, MAINLY EH91             
REMARK   3                 WITHOUT IDEAL DISTANCE INFO                          
REMARK   3    LIBRARY  3 : nuclgeo.dat (V1.13.4.9) 20221011                     
REMARK   3    LIBRARY  4 : bcorrel.dat (V1.15.10.2) 20190616                    
REMARK   3    LIBRARY  5 : contact.dat (V1.15.12.10) 20191121                   
REMARK   3    LIBRARY  6 : idealdist_contact.dat (V1.3.4.14) 20230724           
REMARK   3                 IDEAL-DISTANCE CONTACT TERM DATA AS USED IN          
REMARK   3                 PROLSQ. VALUES USED HERE ARE BASEd ON DATA           
REMARK   3                 HARVESTING OF PDB AS OF 20190109                     
REMARK   3    LIBRARY  7 : restraints for LIG (unknown) from cif                
REMARK   3                 dictionary Z270758780.cif; generated by GRADE        
REMARK   3                 1.2.21 (Feb 03 2022) from SMILES                     
REMARK   3                 CN(C)C=1C=C(CN)C=CN1 using MOGUL 1.8.5(274361),      
REMARK   3                 CSD as541be, with quantum mechanics RM1              
REMARK   3    LIBRARY  8 : restraints for DMS (DIMETHYL SULFOXIDE) from         
REMARK   3                 cif dictionary DMS.cif; generated by grade2          
REMARK   3                 version 1.1.0a7 from                                 
REMARK   3                 PDB_chemical_components_definition_file              
REMARK   3                 ftp://ftp.ebi.ac.uk/pub/databases/msd/pdbechem_v     
REMARK   3                 2/D/DMS/DMS.cif using RDKit 2021.03.4                
REMARK   3                 ((DatabaseID PDB-DMS))                               
REMARK   3    LIBRARY  9 : assume.dat (V1.9.4.3) 20221011                       
REMARK   3                                                                      
REMARK   3   NUMBER OF GEOMETRIC FUNCTION TERMS DEFINED : 15                    
REMARK   3   TERM                          COUNT    WEIGHT   FUNCTION.          
REMARK   3    BOND LENGTHS              :   1651 ;   2.00 ;  HARMONIC           
REMARK   3    BOND ANGLES               :   2264 ;   2.00 ;  HARMONIC           
REMARK   3    TORSION ANGLES            :    558 ;   2.00 ;  SINUSOIDAL         
REMARK   3    TRIGONAL CARBON PLANES    :   NULL ;   NULL ;  NULL               
REMARK   3    GENERAL PLANES            :    295 ;   5.00 ;  HARMONIC           
REMARK   3    ISOTROPIC THERMAL FACTORS :   1651 ;  10.00 ;  HARMONIC           
REMARK   3    BAD NON-BONDED CONTACTS   :   NULL ;   NULL ;  NULL               
REMARK   3    IMPROPER TORSIONS         :   NULL ;   NULL ;  NULL               
REMARK   3    PSEUDOROTATION ANGLES     :   NULL ;   NULL ;  NULL               
REMARK   3    CHIRAL IMPROPER TORSION   :    208 ;   5.00 ;  SEMIHARMONIC       
REMARK   3    SUM OF OCCUPANCIES        :   NULL ;   NULL ;  NULL               
REMARK   3    UTILITY DISTANCES         :   NULL ;   NULL ;  NULL               
REMARK   3    UTILITY ANGLES            :   NULL ;   NULL ;  NULL               
REMARK   3    UTILITY TORSION           :   NULL ;   NULL ;  NULL               
REMARK   3    IDEAL-DIST CONTACT TERM   :   1381 ;   4.00 ;  SEMIHARMONIC       
REMARK   3                                                                      
REMARK   3   RMS DEVIATIONS FROM IDEAL VALUES.                                  
REMARK   3   BOND LENGTHS                       (A) : 0.010                     
REMARK   3   BOND ANGLES                  (DEGREES) : 1.00                      
REMARK   3   PEPTIDE OMEGA TORSION ANGLES (DEGREES) : 3.92                      
REMARK   3   OTHER TORSION ANGLES         (DEGREES) : 15.33                     
REMARK   3                                                                      
REMARK   3   SIMILARITY.                                                        
REMARK   3    NCS.                                                              
REMARK   3     NCS METHOD: NONE                                                 
REMARK   3    TARGET RESTRAINTS.                                                
REMARK   3     TARGET REPRESENTATION : NONE                                     
REMARK   3     TARGET STRUCTURE : NULL                                          
REMARK   3                                                                      
REMARK   3  TLS DETAILS.                                                        
REMARK   3   NUMBER OF TLS GROUPS  :            2                               
REMARK   3                                                                      
REMARK   3   TLS GROUP :            1                                           
REMARK   3    SET : { A|* }                                                     
REMARK   3    ORIGIN FOR THE GROUP (A):  -14.8005   -1.2004  -19.9251           
REMARK   3    T TENSOR                                                          
REMARK   3     T11:    0.0034 T22:   -0.0072                                    
REMARK   3     T33:   -0.1691 T12:    0.1225                                    
REMARK   3     T13:    0.1006 T23:    0.0685                                    
REMARK   3    L TENSOR                                                          
REMARK   3     L11:    2.8658 L22:    3.5431                                    
REMARK   3     L33:    3.4079 L12:   -1.9876                                    
REMARK   3     L13:    0.9920 L23:    0.4760                                    
REMARK   3    S TENSOR                                                          
REMARK   3     S11:    0.4082 S12:    0.4507 S13:    0.2356                     
REMARK   3     S21:   -0.5756 S22:   -0.4007 S23:   -0.2109                     
REMARK   3     S31:   -0.1120 S32:    0.6139 S33:   -0.0075                     
REMARK   3                                                                      
REMARK   3   TLS GROUP :            2                                           
REMARK   3    SET : { B|* }                                                     
REMARK   3    ORIGIN FOR THE GROUP (A):  -18.8763    1.4791  -15.5624           
REMARK   3    T TENSOR                                                          
REMARK   3     T11:    0.0715 T22:   -0.0144                                    
REMARK   3     T33:   -0.0241 T12:    0.0982                                    
REMARK   3     T13:    0.0225 T23:    0.0180                                    
REMARK   3    L TENSOR                                                          
REMARK   3     L11:    1.1108 L22:    1.0801                                    
REMARK   3     L33:    2.4393 L12:   -0.9814                                    
REMARK   3     L13:    0.9190 L23:    0.0454                                    
REMARK   3    S TENSOR                                                          
REMARK   3     S11:    0.2442 S12:    0.1328 S13:    0.0682                     
REMARK   3     S21:   -0.2074 S22:   -0.2677 S23:    0.0697                     
REMARK   3     S31:   -0.0491 S32:    0.2551 S33:    0.0235                     
REMARK   3                                                                      
REMARK   3  REFINEMENT NOTES.                                                   
REMARK   3   NUMBER OF REFINEMENT NOTES :   1                                   
REMARK   3   NOTE   1 : IDEAL-DIST CONTACT TERM CONTACT SETUP. ALL ATOMS        
REMARK   3               HAVE CCP4 ATOM TYPE FROM LIBRARY                       
REMARK   3
REMARK   3  OTHER REFINEMENT REMARKS: NULL
REMARK   3
REMARK 290                                                            
REMARK 290 CRYSTALLOGRAPHIC SYMMETRY                                  
REMARK 290 SYMMETRY OPERATORS FOR SPACE GROUP: P 43 2 2               
REMARK 290                                                            
REMARK 290      SYMOP   SYMMETRY                                      
REMARK 290     NNNMMM   OPERATOR                                      
REMARK 290       1555   X,Y,Z                                         
REMARK 290       2555   -X,-Y,1/2+Z                                   
REMARK 290       3555   -Y,X,3/4+Z                                    
REMARK 290       4555   Y,-X,1/4+Z                                    
REMARK 290       5555   -X,Y,-Z                                       
REMARK 290       6555   X,-Y,1/2-Z                                    
REMARK 290       7555   Y,X,1/4-Z                                     
REMARK 290       8555   -Y,-X,3/4-Z                                   
REMARK 290                                                            
REMARK 290     WHERE NNN -> OPERATOR NUMBER                           
REMARK 290           MMM -> TRANSLATION VECTOR                        
REMARK 290                                                            
REMARK 290 CRYSTALLOGRAPHIC SYMMETRY TRANSFORMATIONS                  
REMARK 290 THE FOLLOWING TRANSFORMATIONS OPERATE ON THE ATOM/HETATM   
REMARK 290 RECORDS IN THIS ENTRY TO PRODUCE CRYSTALLOGRAPHICALLY      
REMARK 290 RELATED MOLECULES.                                         
REMARK 290   SMTRY1   1  1.000000  0.000000  0.000000        0.00000
REMARK 290   SMTRY2   1  0.000000  1.000000  0.000000        0.00000
REMARK 290   SMTRY3   1  0.000000  0.000000  1.000000        0.00000
REMARK 290   SMTRY1   2 -1.000000  0.000000  0.000000        0.00000
REMARK 290   SMTRY2   2  0.000000 -1.000000  0.000000        0.00000
REMARK 290   SMTRY3   2  0.000000  0.000000  1.000000      108.41800
REMARK 290   SMTRY1   3  0.000000 -1.000000  0.000000        0.00000
REMARK 290   SMTRY2   3  1.000000  0.000000  0.000000        0.00000
REMARK 290   SMTRY3   3  0.000000  0.000000  1.000000      162.62700
REMARK 290   SMTRY1   4  0.000000  1.000000  0.000000        0.00000
REMARK 290   SMTRY2   4 -1.000000  0.000000  0.000000        0.00000
REMARK 290   SMTRY3   4  0.000000  0.000000  1.000000       54.20900
REMARK 290   SMTRY1   5 -1.000000  0.000000  0.000000        0.00000
REMARK 290   SMTRY2   5  0.000000  1.000000  0.000000        0.00000
REMARK 290   SMTRY3   5  0.000000  0.000000 -1.000000        0.00000
REMARK 290   SMTRY1   6  1.000000  0.000000  0.000000        0.00000
REMARK 290   SMTRY2   6  0.000000 -1.000000  0.000000        0.00000
REMARK 290   SMTRY3   6  0.000000  0.000000 -1.000000      108.41800
REMARK 290   SMTRY1   7  0.000000  1.000000  0.000000        0.00000
REMARK 290   SMTRY2   7  1.000000  0.000000  0.000000        0.00000
REMARK 290   SMTRY3   7  0.000000  0.000000 -1.000000       54.20900
REMARK 290   SMTRY1   8  0.000000 -1.000000  0.000000        0.00000
REMARK 290   SMTRY2   8 -1.000000  0.000000  0.000000        0.00000
REMARK 290   SMTRY3   8  0.000000  0.000000 -1.000000      162.62700
REMARK 290                                                            
REMARK 290 REMARK: NULL                                               
CRYST1   42.797   42.797  216.836  90.00  90.00  90.00 P 43 2 2                 


$$$$
Zx0425a_ligand
  PyMOL3.0          3D                             0

 11 11  0  0  0  0  0  0  0  0999 V2000
   -3.9990    5.1760  -16.3570 C   0  0  0  0  0  0  0  0  0  0  0  0
   -2.7060    4.9870  -17.0120 N   0  0  0  0  0  0  0  0  0  0  0  0
   -5.1340    5.1650  -17.3580 C   0  0  0  0  0  0  0  0  0  0  0  0
   -7.2510    5.1530  -19.2030 N   0  0  0  0  0  0  0  0  0  0  0  0
   -6.4390    4.9210  -16.9420 C   0  0  0  0  0  0  0  0  0  0  0  0
   -8.7490    4.6350  -17.5140 N   0  0  0  0  0  0  0  0  0  0  0  0
   -4.9130    5.4000  -18.7070 C   0  0  0  0  0  0  0  0  0  0  0  0
   -5.9850    5.3910  -19.5800 C   0  0  0  0  0  0  0  0  0  0  0  0
   -7.4670    4.9160  -17.8980 C   0  0  0  0  0  0  0  0  0  0  0  0
   -9.7940    4.3200  -18.4790 C   0  0  0  0  0  0  0  0  0  0  0  0
   -9.1360    4.6090  -16.1100 C   0  0  0  0  0  0  0  0  0  0  0  0
  1  3  1  0  0  0  0
  1  2  1  0  0  0  0
  3  5  4  0  0  0  0
  3  7  4  0  0  0  0
  4  9  4  0  0  0  0
  5  9  4  0  0  0  0
  6 10  1  0  0  0  0
  6 11  1  0  0  0  0
  7  8  4  0  0  0  0
  4  8  4  0  0  0  0
  6  9  1  0  0  0  0
M  END
>  <pdb_header>
COMPND    XX01ZVNS2B-x0425_B_301_XX01ZVNS2B-x1291+B+301+1


$$$$
Zx0429a
  PyMOL3.0          3D                             0

 16 18  0  0  0  0  0  0  0  0999 V2000
   -5.0250    5.4530  -16.1250 N   0  0  0  0  0  0  0  0  0  0  0  0
   -4.0460    6.8550  -14.3040 C   0  0  0  0  0  0  0  0  0  0  0  0
   -4.9360    6.7980  -15.5350 C   0  0  0  0  0  0  0  0  0  0  0  0
   -3.7730    5.5010  -13.7890 N   0  0  0  0  0  0  0  0  0  0  0  0
   -3.7390    4.7400  -16.1590 C   0  0  0  0  0  0  0  0  0  0  0  0
   -7.1000    5.1520  -19.8020 N   0  0  0  0  0  0  0  0  0  0  0  0
   -3.0640    4.6830  -14.7960 C   0  0  0  0  0  0  0  0  0  0  0  0
   -5.7350    5.4020  -17.3570 C   0  0  0  0  0  0  0  0  0  0  0  0
   -5.1280    5.7070  -18.5610 C   0  0  0  0  0  0  0  0  0  0  0  0
   -5.8490    5.5690  -19.7320 C   0  0  0  0  0  0  0  0  0  0  0  0
   -7.7340    4.8540  -18.6210 C   0  0  0  0  0  0  0  0  0  0  0  0
   -9.0820    4.4310  -18.6730 C   0  0  0  0  0  0  0  0  0  0  0  0
   -9.7700    4.1710  -17.5230 C   0  0  0  0  0  0  0  0  0  0  0  0
   -9.1580    4.3070  -16.2860 C   0  0  0  0  0  0  0  0  0  0  0  0
   -7.8520    4.6890  -16.1940 C   0  0  0  0  0  0  0  0  0  0  0  0
   -7.0980    4.9770  -17.3580 C   0  0  0  0  0  0  0  0  0  0  0  0
  1  3  1  0  0  0  0
  1  5  1  0  0  0  0
  2  3  1  0  0  0  0
  2  4  1  0  0  0  0
  5  7  1  0  0  0  0
  6 10  4  0  0  0  0
  4  7  1  0  0  0  0
  1  8  1  0  0  0  0
  8  9  4  0  0  0  0
  9 10  4  0  0  0  0
  6 11  4  0  0  0  0
 11 12  4  0  0  0  0
 12 13  4  0  0  0  0
 13 14  4  0  0  0  0
 14 15  4  0  0  0  0
 15 16  4  0  0  0  0
  8 16  4  0  0  0  0
 11 16  4  0  0  0  0
M  END
>  <pdb_header>
HEADER    ----                                    23-FEB-23                     
TITLE     ---                                                                   
EXPDTA    X-RAY DIFFRACTION                                                     
REMARK --------------------- added by autoBUSTER ---------------------------------START
REMARK run at   = Fri Sep 15 17:24:47 BST 2023
REMARK     in   = /dls/labxchem/data/lb32627/lb32627-65/processing/analysis/model_building/XX01ZVNS2B-x0429
REMARK     user = kyf22269
REMARK     cmd  = \
REMARK            /dls_sw/apps/GPhL/BUSTER/20230726/autoBUSTER/bin/linux64/refine \
REMARK            -p \
REMARK            /dls/labxchem/data/lb32627/lb32627-65/processing/analysis/model_building/XX01ZVNS2B-x0429/cootOut/Refi
REMARK            -m \
REMARK            /dls/labxchem/data/lb32627/lb32627-65/processing/analysis/model_building/XX01ZVNS2B-x0429/XX01ZVNS2B-x
REMARK            -l \
REMARK            /dls/labxchem/data/lb32627/lb32627-65/processing/analysis/model_building/XX01ZVNS2B-x0429/Z57477251.ci
REMARK            -autoncs -M TLSbasic -d Refine_9
REMARK Files used:
REMARK   PDB              = Refine_9/pdbchk.pdb
REMARK   MTZ              = /dls/labxchem/data/lb32627/lb32627-65/processing/analysis/model_building/XX01ZVNS2B-x0429/XX
REMARK output written to subdirectory = Refine_9
REMARK best refinement for F,SIGF with R/Rfree 0.2162/0.2451
REMARK header records are copied from input PDB file (apart from REMARK 3!)
REMARK --------------------- added by autoBUSTER -----------------------------------END
REMARK --------------------- added by autoBUSTER -------------------------------
REMARK run at   = Wed Jun 14 19:36:59 BST 2023                                  
REMARK     in   = /dls/labxchem/data/lb32627/lb32627-65/processing/analysis/mode
REMARK     user = xau79897                                                      
REMARK     cmd  = \                                                             
REMARK            /dls_sw/apps/GPhL/BUSTER/20230614/autoBUSTER/bin/linux64/refin
REMARK            -p \                                                          
REMARK            /dls/labxchem/data/lb32627/lb32627-65/processing/analysis/mode
REMARK            -m \                                                          
REMARK            /dls/labxchem/data/lb32627/lb32627-65/processing/analysis/mode
REMARK            -l \                                                          
REMARK            /dls/labxchem/data/lb32627/lb32627-65/processing/analysis/mode
REMARK            -autoncs -M TLSbasic -B user -Gelly gelly.dat \               
REMARK            StopOnGellySanityCheckError=no -d Refine_8                    
REMARK Files used:                                                              
REMARK   PDB              = Refine_8/pdbchk.pdb                                 
REMARK   MTZ              = /dls/labxchem/data/lb32627/lb32627-65/processing/ana
REMARK   Gelly commands       = /dls/labxchem/data/lb32627/lb32627-65/processing
REMARK output written to subdirectory = Refine_8                                
REMARK best refinement for F,SIGF with R/Rfree 0.2164/0.2460                    
REMARK header records are copied from input PDB file (apart from REMARK 3!)     
REMARK --------------------- added by autoBUSTER -------------------------------
REMARK --------------------- added by autoBUSTER -------------------------------
REMARK run at   = Thu Jun  1 15:56:02 BST 2023                                  
REMARK     in   = /dls/labxchem/data/lb32627/lb32627-65/processing/analysis/mode
REMARK     user = xau79897                                                      
REMARK     cmd  = \                                                             
REMARK            /dls_sw/apps/GPhL/BUSTER/20230217/autoBUSTER/bin/linux64/refin
REMARK            -p \                                                          
REMARK            /dls/labxchem/data/lb32627/lb32627-65/processing/analysis/mode
REMARK            -m \                                                          
REMARK            /dls/labxchem/data/lb32627/lb32627-65/processing/analysis/mode
REMARK            -l \                                                          
REMARK            /dls/labxchem/data/lb32627/lb32627-65/processing/analysis/mode
REMARK            -autoncs -M TLSbasic -B user -Gelly gelly.dat \               
REMARK            StopOnGellySanityCheckError=no -d Refine_7                    
REMARK Files used:                                                              
REMARK   PDB              = Refine_7/pdbchk.pdb                                 
REMARK   MTZ              = /dls/labxchem/data/lb32627/lb32627-65/processing/ana
REMARK   Gelly commands       = /dls/labxchem/data/lb32627/lb32627-65/processing
REMARK output written to subdirectory = Refine_7                                
REMARK best refinement for F,SIGF with R/Rfree 0.2171/0.2502                    
REMARK header records are copied from input PDB file (apart from REMARK 3!)     
REMARK --------------------- added by autoBUSTER -------------------------------
REMARK --------------------- added by autoBUSTER -------------------------------
REMARK run at   = Tue May 30 16:56:41 BST 2023                                  
REMARK     in   = /dls/labxchem/data/lb32627/lb32627-65/processing/analysis/mode
REMARK     user = xau79897                                                      
REMARK     cmd  = \                                                             
REMARK            /dls_sw/apps/GPhL/BUSTER/20230217/autoBUSTER/bin/linux64/refin
REMARK            -p \                                                          
REMARK            /dls/labxchem/data/lb32627/lb32627-65/processing/analysis/mode
REMARK            -m \                                                          
REMARK            /dls/labxchem/data/lb32627/lb32627-65/processing/analysis/mode
REMARK            -l \                                                          
REMARK            /dls/labxchem/data/lb32627/lb32627-65/processing/analysis/mode
REMARK            -autoncs -M TLSbasic -WAT -B user -Gelly gelly.dat \          
REMARK            StopOnGellySanityCheckError=no -d Refine_6                    
REMARK Files used:                                                              
REMARK   PDB              = Refine_6/pdbchk.pdb                                 
REMARK   MTZ              = /dls/labxchem/data/lb32627/lb32627-65/processing/ana
REMARK   Gelly commands       = /dls/labxchem/data/lb32627/lb32627-65/processing
REMARK output written to subdirectory = Refine_6                                
REMARK best refinement for F,SIGF with R/Rfree 0.2172/0.2508                    
REMARK header records are copied from input PDB file (apart from REMARK 3!)     
REMARK --------------------- added by autoBUSTER -------------------------------
REMARK --------------------- added by autoBUSTER -------------------------------
REMARK run at   = Mon May 29 19:25:56 BST 2023                                  
REMARK     in   = /dls/labxchem/data/lb32627/lb32627-65/processing/analysis/mode
REMARK     user = xau79897                                                      
REMARK     cmd  = \                                                             
REMARK            /dls_sw/apps/GPhL/BUSTER/20230217/autoBUSTER/bin/linux64/refin
REMARK            -p \                                                          
REMARK            /dls/labxchem/data/lb32627/lb32627-65/processing/analysis/mode
REMARK            -m \                                                          
REMARK            /dls/labxchem/data/lb32627/lb32627-65/processing/analysis/mode
REMARK            -l \                                                          
REMARK            /dls/labxchem/data/lb32627/lb32627-65/processing/analysis/mode
REMARK            -autoncs -M TLSbasic -WAT -B user -Gelly gelly.dat \          
REMARK            StopOnGellySanityCheckError=no -d Refine_5                    
REMARK Files used:                                                              
REMARK   PDB              = Refine_5/pdbchk.pdb                                 
REMARK   MTZ              = /dls/labxchem/data/lb32627/lb32627-65/processing/ana
REMARK   Gelly commands       = /dls/labxchem/data/lb32627/lb32627-65/processing
REMARK output written to subdirectory = Refine_5                                
REMARK best refinement for F,SIGF with R/Rfree 0.2181/0.2492                    
REMARK header records are copied from input PDB file (apart from REMARK 3!)     
REMARK --------------------- added by autoBUSTER -------------------------------
REMARK --------------------- added by autoBUSTER -------------------------------
REMARK run at   = Mon May 29 13:01:29 BST 2023                                  
REMARK     in   = /dls/labxchem/data/lb32627/lb32627-65/processing/analysis/mode
REMARK     user = xau79897                                                      
REMARK     cmd  = \                                                             
REMARK            /dls_sw/apps/GPhL/BUSTER/20230217/autoBUSTER/bin/linux64/refin
REMARK            -p \                                                          
REMARK            /dls/labxchem/data/lb32627/lb32627-65/processing/analysis/mode
REMARK            -m \                                                          
REMARK            /dls/labxchem/data/lb32627/lb32627-65/processing/analysis/mode
REMARK            -l \                                                          
REMARK            /dls/labxchem/data/lb32627/lb32627-65/processing/analysis/mode
REMARK            -autoncs -M TLSbasic -WAT -B user -Gelly gelly.dat \          
REMARK            StopOnGellySanityCheckError=no -d Refine_4                    
REMARK Files used:                                                              
REMARK   PDB              = Refine_4/pdbchk.pdb                                 
REMARK   MTZ              = /dls/labxchem/data/lb32627/lb32627-65/processing/ana
REMARK   Gelly commands       = /dls/labxchem/data/lb32627/lb32627-65/processing
REMARK output written to subdirectory = Refine_4                                
REMARK best refinement for F,SIGF with R/Rfree 0.2202/0.2577                    
REMARK header records are copied from input PDB file (apart from REMARK 3!)     
REMARK --------------------- added by autoBUSTER -------------------------------
REMARK --------------------- added by autoBUSTER -------------------------------
REMARK run at   = Tue May 23 17:03:15 BST 2023                                  
REMARK     in   = /dls/labxchem/data/lb32627/lb32627-65/processing/analysis/mode
REMARK     user = xau79897                                                      
REMARK     cmd  = \                                                             
REMARK            /dls_sw/apps/GPhL/BUSTER/20230217/autoBUSTER/bin/linux64/refin
REMARK            -p \                                                          
REMARK            /dls/labxchem/data/lb32627/lb32627-65/processing/analysis/mode
REMARK            -m \                                                          
REMARK            /dls/labxchem/data/lb32627/lb32627-65/processing/analysis/mode
REMARK            -l \                                                          
REMARK            /dls/labxchem/data/lb32627/lb32627-65/processing/analysis/mode
REMARK            -autoncs -M TLSbasic -d Refine_3                              
REMARK Files used:                                                              
REMARK   PDB              = Refine_3/pdbchk.pdb                                 
REMARK   MTZ              = /dls/labxchem/data/lb32627/lb32627-65/processing/ana
REMARK output written to subdirectory = Refine_3                                
REMARK best refinement for F,SIGF with R/Rfree 0.2316/0.2534                    
REMARK header records are copied from input PDB file (apart from REMARK 3!)     
REMARK --------------------- added by autoBUSTER -------------------------------
REMARK   2                                                            
REMARK   2 RESOLUTION.    1.38 ANGSTROMS.
REMARK   3
REMARK   3 REFINEMENT.
REMARK   3   PROGRAM     : BUSTER 2.10.4 (26-JUL-2023)
REMARK   3   AUTHORS     : BRICOGNE,BLANC,BRANDL,FLENSBURG,KELLER,
REMARK   3               : PACIOREK,ROVERSI,SHARFF,SMART,VONRHEIN,WOMACK;
REMARK   3               : MATTHEWS,TEN EYCK,TRONRUD
REMARK   3
REMARK   3  DATA USED IN REFINEMENT.
REMARK   3   RESOLUTION RANGE HIGH (ANGSTROMS) : 1.376
REMARK   3   RESOLUTION RANGE LOW  (ANGSTROMS) : 19.86
REMARK   3   DATA CUTOFF            (SIGMA(F)) : 0.000
REMARK   3   COMPLETENESS FOR RANGE        (%) : 91.0
REMARK   3   NUMBER OF REFLECTIONS             : 39160
REMARK   3
REMARK   3  FIT TO DATA USED IN REFINEMENT.
REMARK   3   CROSS-VALIDATION METHOD          : THROUGHOUT
REMARK   3   FREE R VALUE TEST SET SELECTION  : RANDOM
REMARK   3   R VALUE     (WORKING + TEST SET) : 0.2177
REMARK   3   R VALUE            (WORKING SET) : 0.2162
REMARK   3   FREE R VALUE                     : 0.2451
REMARK   3   FREE R VALUE TEST SET SIZE   (%) : 5.080
REMARK   3   FREE R VALUE TEST SET COUNT      : 1991
REMARK   3   ESTIMATED ERROR OF FREE R VALUE  : NULL
REMARK   3
REMARK   3  FIT IN THE HIGHEST RESOLUTION BIN.
REMARK   3   TOTAL NUMBER OF BINS USED           : 51
REMARK   3   BIN RESOLUTION RANGE HIGH       (A) : 1.38
REMARK   3   BIN RESOLUTION RANGE LOW        (A) : 1.43
REMARK   3   BIN COMPLETENESS (WORKING+TEST) (%) : 17.12
REMARK   3   REFLECTIONS IN BIN   (WORKING+TEST) : 784
REMARK   3   BIN R VALUE          (WORKING+TEST) : 0.5975
REMARK   3   REFLECTIONS IN BIN    (WORKING SET) : 730
REMARK   3   BIN R VALUE           (WORKING SET) : 0.6002
REMARK   3   BIN FREE R VALUE                    : 0.5605
REMARK   3   BIN FREE R VALUE TEST SET SIZE  (%) : 6.89
REMARK   3   BIN FREE R VALUE TEST SET COUNT     : 54
REMARK   3   ESTIMATED ERROR OF BIN FREE R VALUE : NULL
REMARK   3
REMARK   3  NUMBER OF NON-HYDROGEN ATOMS USED IN REFINEMENT.
REMARK   3   PROTEIN ATOMS            : 1476
REMARK   3   NUCLEIC ACID ATOMS       : 0
REMARK   3   HETEROGEN ATOMS          : 24
REMARK   3   SOLVENT ATOMS            : 162
REMARK   3
REMARK   3  B VALUES.
REMARK   3   FROM WILSON PLOT           (A**2) : 28.78
REMARK   3   MEAN B VALUE      (OVERALL, A**2) : 44.98
REMARK   3   OVERALL ANISOTROPIC B VALUE.
REMARK   3    B11 (A**2) : -5.08840
REMARK   3    B22 (A**2) : -5.08840
REMARK   3    B33 (A**2) : 10.17680
REMARK   3    B12 (A**2) : 0.00000
REMARK   3    B13 (A**2) : 0.00000
REMARK   3    B23 (A**2) : 0.00000
REMARK   3
REMARK   3  ESTIMATED COORDINATE ERROR.
REMARK   3   ESD FROM LUZZATI PLOT                    (A) : 0.27
REMARK   3   DPI (BLOW EQ-10) BASED ON R VALUE        (A) : 0.074
REMARK   3   DPI (BLOW EQ-9) BASED ON FREE R VALUE    (A) : 0.075
REMARK   3   DPI (CRUICKSHANK) BASED ON R VALUE       (A) : 0.070
REMARK   3   DPI (CRUICKSHANK) BASED ON FREE R VALUE  (A) : 0.072
REMARK   3
REMARK   3   REFERENCES: BLOW, D. (2002) ACTA CRYST D58, 792-797
REMARK   3               CRUICKSHANK, D.W.J. (1999) ACTA CRYST D55, 583-601
REMARK   3
REMARK   3  CORRELATION COEFFICIENTS.
REMARK   3   CORRELATION COEFFICIENT FO-FC      : 0.955
REMARK   3   CORRELATION COEFFICIENT FO-FC FREE : 0.946
REMARK   3
REMARK   3  X-RAY WEIGHT : 6.04
REMARK   3
REMARK   3  GEOMETRY FUNCTION.                                                  
REMARK   3   RESTRAINT LIBRARIES.                                               
REMARK   3    NUMBER OF LIBRARIES USED :   9                                    
REMARK   3    LIBRARY  1 : protgeo_eh99.dat (V1.6.4.20) 20220523  STANDARD      
REMARK   3                 AMINO ACID DICTIONARY. BONDS AND ANGLES FROM         
REMARK   3                 ENGH AND HUBER EH99. OTHER VALUES BASED ON           
REMARK   3                 PREVIOUS TNT OR TAKEN FROM CCP4. INCLUDES            
REMARK   3                 HYDROGEN ATOMS.                                      
REMARK   3    LIBRARY  2 : exoticaa.dat (V1.3.4.16) 20220523  COLLECTION        
REMARK   3                 OF NON-STANDARD AMINO ACIDS, MAINLY EH91             
REMARK   3                 WITHOUT IDEAL DISTANCE INFO                          
REMARK   3    LIBRARY  3 : nuclgeo.dat (V1.13.4.9) 20221011                     
REMARK   3    LIBRARY  4 : bcorrel.dat (V1.15.10.2) 20190616                    
REMARK   3    LIBRARY  5 : contact.dat (V1.15.12.10) 20191121                   
REMARK   3    LIBRARY  6 : idealdist_contact.dat (V1.3.4.14) 20230724           
REMARK   3                 IDEAL-DISTANCE CONTACT TERM DATA AS USED IN          
REMARK   3                 PROLSQ. VALUES USED HERE ARE BASEd ON DATA           
REMARK   3                 HARVESTING OF PDB AS OF 20190109                     
REMARK   3    LIBRARY  7 : restraints for LIG (unknown) from cif                
REMARK   3                 dictionary Z57477251.cif; generated by GRADE         
REMARK   3                 1.2.21 (Feb 03 2022) from SMILES                     
REMARK   3                 C1CN(CCN1)C=2C=CN=C3C=CC=CC23 using MOGUL            
REMARK   3                 1.8.5(274361), CSD as541be, with quantum             
REMARK   3                 mechanics RM1                                        
REMARK   3    LIBRARY  8 : restraints for DMS (DIMETHYL SULFOXIDE) from         
REMARK   3                 cif dictionary DMS.cif; generated by grade2          
REMARK   3                 version 1.1.0a7 from                                 
REMARK   3                 PDB_chemical_components_definition_file              
REMARK   3                 ftp://ftp.ebi.ac.uk/pub/databases/msd/pdbechem_v     
REMARK   3                 2/D/DMS/DMS.cif using RDKit 2021.03.4                
REMARK   3                 ((DatabaseID PDB-DMS))                               
REMARK   3    LIBRARY  9 : assume.dat (V1.9.4.3) 20221011                       
REMARK   3                                                                      
REMARK   3   NUMBER OF GEOMETRIC FUNCTION TERMS DEFINED : 15                    
REMARK   3   TERM                          COUNT    WEIGHT   FUNCTION.          
REMARK   3    BOND LENGTHS              :   1542 ;   2.00 ;  HARMONIC           
REMARK   3    BOND ANGLES               :   2090 ;   2.00 ;  HARMONIC           
REMARK   3    TORSION ANGLES            :    525 ;   2.00 ;  SINUSOIDAL         
REMARK   3    TRIGONAL CARBON PLANES    :   NULL ;   NULL ;  NULL               
REMARK   3    GENERAL PLANES            :    275 ;   5.00 ;  HARMONIC           
REMARK   3    ISOTROPIC THERMAL FACTORS :   1542 ;  10.00 ;  HARMONIC           
REMARK   3    BAD NON-BONDED CONTACTS   :   NULL ;   NULL ;  NULL               
REMARK   3    IMPROPER TORSIONS         :   NULL ;   NULL ;  NULL               
REMARK   3    PSEUDOROTATION ANGLES     :   NULL ;   NULL ;  NULL               
REMARK   3    CHIRAL IMPROPER TORSION   :    190 ;   5.00 ;  SEMIHARMONIC       
REMARK   3    SUM OF OCCUPANCIES        :   NULL ;   NULL ;  NULL               
REMARK   3    UTILITY DISTANCES         :   NULL ;   NULL ;  NULL               
REMARK   3    UTILITY ANGLES            :   NULL ;   NULL ;  NULL               
REMARK   3    UTILITY TORSION           :   NULL ;   NULL ;  NULL               
REMARK   3    IDEAL-DIST CONTACT TERM   :   1318 ;   4.00 ;  SEMIHARMONIC       
REMARK   3                                                                      
REMARK   3   RMS DEVIATIONS FROM IDEAL VALUES.                                  
REMARK   3   BOND LENGTHS                       (A) : 0.012                     
REMARK   3   BOND ANGLES                  (DEGREES) : 1.12                      
REMARK   3   PEPTIDE OMEGA TORSION ANGLES (DEGREES) : 4.39                      
REMARK   3   OTHER TORSION ANGLES         (DEGREES) : 16.14                     
REMARK   3                                                                      
REMARK   3   SIMILARITY.                                                        
REMARK   3    NCS.                                                              
REMARK   3     NCS METHOD: NONE                                                 
REMARK   3    TARGET RESTRAINTS.                                                
REMARK   3     TARGET REPRESENTATION : NONE                                     
REMARK   3     TARGET STRUCTURE : NULL                                          
REMARK   3                                                                      
REMARK   3  TLS DETAILS.                                                        
REMARK   3   NUMBER OF TLS GROUPS  :            2                               
REMARK   3                                                                      
REMARK   3   TLS GROUP :            1                                           
REMARK   3    SET : { A|* }                                                     
REMARK   3    ORIGIN FOR THE GROUP (A):  -13.7974   -1.1563  -19.3296           
REMARK   3    T TENSOR                                                          
REMARK   3     T11:    0.0460 T22:    0.0321                                    
REMARK   3     T33:   -0.1443 T12:    0.1574                                    
REMARK   3     T13:    0.0810 T23:    0.0687                                    
REMARK   3    L TENSOR                                                          
REMARK   3     L11:    2.4471 L22:    2.7274                                    
REMARK   3     L33:    2.8749 L12:   -1.4403                                    
REMARK   3     L13:    0.9574 L23:    0.3460                                    
REMARK   3    S TENSOR                                                          
REMARK   3     S11:    0.4270 S12:    0.4363 S13:    0.2561                     
REMARK   3     S21:   -0.4900 S22:   -0.3799 S23:   -0.2666                     
REMARK   3     S31:   -0.0236 S32:    0.5739 S33:   -0.0471                     
REMARK   3                                                                      
REMARK   3   TLS GROUP :            2                                           
REMARK   3    SET : { B|* }                                                     
REMARK   3    ORIGIN FOR THE GROUP (A):  -18.7259    1.4204  -15.6852           
REMARK   3    T TENSOR                                                          
REMARK   3     T11:    0.0974 T22:   -0.0148                                    
REMARK   3     T33:   -0.0259 T12:    0.1125                                    
REMARK   3     T13:    0.0109 T23:    0.0172                                    
REMARK   3    L TENSOR                                                          
REMARK   3     L11:    1.2656 L22:    1.0024                                    
REMARK   3     L33:    1.7910 L12:   -0.9493                                    
REMARK   3     L13:    0.6211 L23:    0.0627                                    
REMARK   3    S TENSOR                                                          
REMARK   3     S11:    0.2694 S12:    0.1274 S13:    0.0490                     
REMARK   3     S21:   -0.1839 S22:   -0.2642 S23:    0.0545                     
REMARK   3     S31:   -0.0183 S32:    0.1797 S33:   -0.0052                     
REMARK   3                                                                      
REMARK   3  REFINEMENT NOTES.                                                   
REMARK   3   NUMBER OF REFINEMENT NOTES :   1                                   
REMARK   3   NOTE   1 : IDEAL-DIST CONTACT TERM CONTACT SETUP. ALL ATOMS        
REMARK   3               HAVE CCP4 ATOM TYPE FROM LIBRARY                       
REMARK   3
REMARK   3  OTHER REFINEMENT REMARKS: NULL
REMARK   3
REMARK 290                                                            
REMARK 290 CRYSTALLOGRAPHIC SYMMETRY                                  
REMARK 290 SYMMETRY OPERATORS FOR SPACE GROUP: P 43 2 2               
REMARK 290                                                            
REMARK 290      SYMOP   SYMMETRY                                      
REMARK 290     NNNMMM   OPERATOR                                      
REMARK 290       1555   X,Y,Z                                         
REMARK 290       2555   -X,-Y,1/2+Z                                   
REMARK 290       3555   -Y,X,3/4+Z                                    
REMARK 290       4555   Y,-X,1/4+Z                                    
REMARK 290       5555   -X,Y,-Z                                       
REMARK 290       6555   X,-Y,1/2-Z                                    
REMARK 290       7555   Y,X,1/4-Z                                     
REMARK 290       8555   -Y,-X,3/4-Z                                   
REMARK 290                                                            
REMARK 290     WHERE NNN -> OPERATOR NUMBER                           
REMARK 290           MMM -> TRANSLATION VECTOR                        
REMARK 290                                                            
REMARK 290 CRYSTALLOGRAPHIC SYMMETRY TRANSFORMATIONS                  
REMARK 290 THE FOLLOWING TRANSFORMATIONS OPERATE ON THE ATOM/HETATM   
REMARK 290 RECORDS IN THIS ENTRY TO PRODUCE CRYSTALLOGRAPHICALLY      
REMARK 290 RELATED MOLECULES.                                         
REMARK 290   SMTRY1   1  1.000000  0.000000  0.000000        0.00000
REMARK 290   SMTRY2   1  0.000000  1.000000  0.000000        0.00000
REMARK 290   SMTRY3   1  0.000000  0.000000  1.000000        0.00000
REMARK 290   SMTRY1   2 -1.000000  0.000000  0.000000        0.00000
REMARK 290   SMTRY2   2  0.000000 -1.000000  0.000000        0.00000
REMARK 290   SMTRY3   2  0.000000  0.000000  1.000000      108.44350
REMARK 290   SMTRY1   3  0.000000 -1.000000  0.000000        0.00000
REMARK 290   SMTRY2   3  1.000000  0.000000  0.000000        0.00000
REMARK 290   SMTRY3   3  0.000000  0.000000  1.000000      162.66525
REMARK 290   SMTRY1   4  0.000000  1.000000  0.000000        0.00000
REMARK 290   SMTRY2   4 -1.000000  0.000000  0.000000        0.00000
REMARK 290   SMTRY3   4  0.000000  0.000000  1.000000       54.22175
REMARK 290   SMTRY1   5 -1.000000  0.000000  0.000000        0.00000
REMARK 290   SMTRY2   5  0.000000  1.000000  0.000000        0.00000
REMARK 290   SMTRY3   5  0.000000  0.000000 -1.000000        0.00000
REMARK 290   SMTRY1   6  1.000000  0.000000  0.000000        0.00000
REMARK 290   SMTRY2   6  0.000000 -1.000000  0.000000        0.00000
REMARK 290   SMTRY3   6  0.000000  0.000000 -1.000000      108.44350
REMARK 290   SMTRY1   7  0.000000  1.000000  0.000000        0.00000
REMARK 290   SMTRY2   7  1.000000  0.000000  0.000000        0.00000
REMARK 290   SMTRY3   7  0.000000  0.000000 -1.000000       54.22175
REMARK 290   SMTRY1   8  0.000000 -1.000000  0.000000        0.00000
REMARK 290   SMTRY2   8 -1.000000  0.000000  0.000000        0.00000
REMARK 290   SMTRY3   8  0.000000  0.000000 -1.000000      162.66525
REMARK 290                                                            
REMARK 290 REMARK: NULL                                               
CRYST1   42.677   42.677  216.887  90.00  90.00  90.00 P 43 2 2                 


$$$$
Zx0429a_ligand
  PyMOL3.0          3D                             0

 16 18  0  0  0  0  0  0  0  0999 V2000
   -7.8520    4.6890  -16.1940 C   0  0  0  0  0  0  0  0  0  0  0  0
   -7.1000    5.1520  -19.8020 N   0  0  0  0  0  0  0  0  0  0  0  0
   -9.1580    4.3070  -16.2860 C   0  0  0  0  0  0  0  0  0  0  0  0
   -5.0250    5.4530  -16.1250 N   0  0  0  0  0  0  0  0  0  0  0  0
   -9.7700    4.1710  -17.5230 C   0  0  0  0  0  0  0  0  0  0  0  0
   -3.7730    5.5010  -13.7890 N   0  0  0  0  0  0  0  0  0  0  0  0
   -9.0820    4.4310  -18.6730 C   0  0  0  0  0  0  0  0  0  0  0  0
   -7.0980    4.9770  -17.3580 C   0  0  0  0  0  0  0  0  0  0  0  0
   -7.7340    4.8540  -18.6210 C   0  0  0  0  0  0  0  0  0  0  0  0
   -5.8490    5.5690  -19.7320 C   0  0  0  0  0  0  0  0  0  0  0  0
   -5.1280    5.7070  -18.5610 C   0  0  0  0  0  0  0  0  0  0  0  0
   -5.7350    5.4020  -17.3570 C   0  0  0  0  0  0  0  0  0  0  0  0
   -4.9360    6.7980  -15.5350 C   0  0  0  0  0  0  0  0  0  0  0  0
   -3.7390    4.7400  -16.1590 C   0  0  0  0  0  0  0  0  0  0  0  0
   -3.0640    4.6830  -14.7960 C   0  0  0  0  0  0  0  0  0  0  0  0
   -4.0460    6.8550  -14.3040 C   0  0  0  0  0  0  0  0  0  0  0  0
  1  3  4  0  0  0  0
  1  8  4  0  0  0  0
  2 10  4  0  0  0  0
  3  5  4  0  0  0  0
  4 13  1  0  0  0  0
  4 14  1  0  0  0  0
  5  7  4  0  0  0  0
  6 16  1  0  0  0  0
  7  9  4  0  0  0  0
  8  9  4  0  0  0  0
  8 12  4  0  0  0  0
  2  9  4  0  0  0  0
 10 11  4  0  0  0  0
 11 12  4  0  0  0  0
  4 12  1  0  0  0  0
 13 16  1  0  0  0  0
 14 15  1  0  0  0  0
  6 15  1  0  0  0  0
M  END
>  <pdb_header>
COMPND    XX01ZVNS2B-x0429_B_203_XX01ZVNS2B-x1291+B+301+1


$$$$
Zx0435a
  PyMOL3.0          3D                             0

 10 11  0  0  0  0  0  0  0  0999 V2000
   -6.3910    4.8920  -20.3220 N   0  0  0  0  0  0  0  0  0  0  0  0
   -6.3040    4.8850  -18.9900 C   0  0  0  0  0  0  0  0  0  0  0  0
   -6.8870    4.7290  -16.8830 C   0  0  0  0  0  0  0  0  0  0  0  0
   -5.2030    5.0040  -18.2610 N   0  0  0  0  0  0  0  0  0  0  0  0
   -7.7760    4.5370  -15.7970 C   0  0  0  0  0  0  0  0  0  0  0  0
   -5.5740    4.9080  -16.9170 N   0  0  0  0  0  0  0  0  0  0  0  0
   -9.1050    4.3520  -16.0470 C   0  0  0  0  0  0  0  0  0  0  0  0
   -7.4130    4.7050  -18.1750 N   0  0  0  0  0  0  0  0  0  0  0  0
   -9.6020    4.3390  -17.3720 C   0  0  0  0  0  0  0  0  0  0  0  0
   -8.7600    4.5110  -18.4160 C   0  0  0  0  0  0  0  0  0  0  0  0
  1  2  1  0  0  0  0
  2  4  4  0  0  0  0
  2  8  4  0  0  0  0
  3  5  4  0  0  0  0
  3  6  4  0  0  0  0
  4  6  4  0  0  0  0
  5  7  4  0  0  0  0
  3  8  4  0  0  0  0
  8 10  4  0  0  0  0
  7  9  4  0  0  0  0
  9 10  4  0  0  0  0
M  END
>  <pdb_header>
HEADER    ----                                    18-MAY-23                     
TITLE     ---                                                                   
EXPDTA    X-RAY DIFFRACTION                                                     
REMARK --------------------- added by autoBUSTER ---------------------------------START
REMARK run at   = Fri Sep 15 17:34:12 BST 2023
REMARK     in   = /dls/labxchem/data/lb32627/lb32627-65/processing/analysis/model_building/XX01ZVNS2B-x0435
REMARK     user = kyf22269
REMARK     cmd  = \
REMARK            /dls_sw/apps/GPhL/BUSTER/20230726/autoBUSTER/bin/linux64/refine \
REMARK            -p \
REMARK            /dls/labxchem/data/lb32627/lb32627-65/processing/analysis/model_building/XX01ZVNS2B-x0435/cootOut/Refi
REMARK            -m \
REMARK            /dls/labxchem/data/lb32627/lb32627-65/processing/analysis/model_building/XX01ZVNS2B-x0435/XX01ZVNS2B-x
REMARK            -l \
REMARK            /dls/labxchem/data/lb32627/lb32627-65/processing/analysis/model_building/XX01ZVNS2B-x0435/Z362020366.c
REMARK            -autoncs -M TLSbasic -d Refine_8
REMARK Files used:
REMARK   PDB              = Refine_8/pdbchk.pdb
REMARK   MTZ              = /dls/labxchem/data/lb32627/lb32627-65/processing/analysis/model_building/XX01ZVNS2B-x0435/XX
REMARK output written to subdirectory = Refine_8
REMARK best refinement for F,SIGF with R/Rfree 0.2184/0.2526
REMARK header records are copied from input PDB file (apart from REMARK 3!)
REMARK --------------------- added by autoBUSTER -----------------------------------END
REMARK --------------------- added by autoBUSTER -------------------------------
REMARK run at   = Wed Jun 14 19:43:50 BST 2023                                  
REMARK     in   = /dls/labxchem/data/lb32627/lb32627-65/processing/analysis/mode
REMARK     user = xau79897                                                      
REMARK     cmd  = \                                                             
REMARK            /dls_sw/apps/GPhL/BUSTER/20230614/autoBUSTER/bin/linux64/refin
REMARK            -p \                                                          
REMARK            /dls/labxchem/data/lb32627/lb32627-65/processing/analysis/mode
REMARK            -m \                                                          
REMARK            /dls/labxchem/data/lb32627/lb32627-65/processing/analysis/mode
REMARK            -l \                                                          
REMARK            /dls/labxchem/data/lb32627/lb32627-65/processing/analysis/mode
REMARK            -autoncs -M TLSbasic StopOnGellySanityCheckError=no -d \      
REMARK            Refine_7                                                      
REMARK Files used:                                                              
REMARK   PDB              = Refine_7/pdbchk.pdb                                 
REMARK   MTZ              = /dls/labxchem/data/lb32627/lb32627-65/processing/ana
REMARK output written to subdirectory = Refine_7                                
REMARK best refinement for F,SIGF with R/Rfree 0.2186/0.2501                    
REMARK header records are copied from input PDB file (apart from REMARK 3!)     
REMARK --------------------- added by autoBUSTER -------------------------------
REMARK --------------------- added by autoBUSTER -------------------------------
REMARK run at   = Thu Jun  1 16:02:00 BST 2023                                  
REMARK     in   = /dls/labxchem/data/lb32627/lb32627-65/processing/analysis/mode
REMARK     user = xau79897                                                      
REMARK     cmd  = \                                                             
REMARK            /dls_sw/apps/GPhL/BUSTER/20230217/autoBUSTER/bin/linux64/refin
REMARK            -p \                                                          
REMARK            /dls/labxchem/data/lb32627/lb32627-65/processing/analysis/mode
REMARK            -m \                                                          
REMARK            /dls/labxchem/data/lb32627/lb32627-65/processing/analysis/mode
REMARK            -l \                                                          
REMARK            /dls/labxchem/data/lb32627/lb32627-65/processing/analysis/mode
REMARK            -autoncs -M TLSbasic -B user -Gelly gelly.dat \               
REMARK            StopOnGellySanityCheckError=no -d Refine_6                    
REMARK Files used:                                                              
REMARK   PDB              = Refine_6/pdbchk.pdb                                 
REMARK   MTZ              = /dls/labxchem/data/lb32627/lb32627-65/processing/ana
REMARK   Gelly commands       = /dls/labxchem/data/lb32627/lb32627-65/processing
REMARK output written to subdirectory = Refine_6                                
REMARK best refinement for F,SIGF with R/Rfree 0.2175/0.2512                    
REMARK header records are copied from input PDB file (apart from REMARK 3!)     
REMARK --------------------- added by autoBUSTER -------------------------------
REMARK --------------------- added by autoBUSTER -------------------------------
REMARK run at   = Mon May 29 13:02:13 BST 2023                                  
REMARK     in   = /dls/labxchem/data/lb32627/lb32627-65/processing/analysis/mode
REMARK     user = xau79897                                                      
REMARK     cmd  = \                                                             
REMARK            /dls_sw/apps/GPhL/BUSTER/20230217/autoBUSTER/bin/linux64/refin
REMARK            -p \                                                          
REMARK            /dls/labxchem/data/lb32627/lb32627-65/processing/analysis/mode
REMARK            -m \                                                          
REMARK            /dls/labxchem/data/lb32627/lb32627-65/processing/analysis/mode
REMARK            -l \                                                          
REMARK            /dls/labxchem/data/lb32627/lb32627-65/processing/analysis/mode
REMARK            -autoncs -M TLSbasic -d Refine_5                              
REMARK Files used:                                                              
REMARK   PDB              = Refine_5/pdbchk.pdb                                 
REMARK   MTZ              = /dls/labxchem/data/lb32627/lb32627-65/processing/ana
REMARK output written to subdirectory = Refine_5                                
REMARK best refinement for F,SIGF with R/Rfree 0.2201/0.2571                    
REMARK header records are copied from input PDB file (apart from REMARK 3!)     
REMARK --------------------- added by autoBUSTER -------------------------------
REMARK --------------------- added by autoBUSTER -------------------------------
REMARK run at   = Wed May 24 13:31:25 BST 2023                                  
REMARK     in   = /dls/labxchem/data/lb32627/lb32627-65/processing/analysis/mode
REMARK     user = xau79897                                                      
REMARK     cmd  = \                                                             
REMARK            /dls_sw/apps/GPhL/BUSTER/20230217/autoBUSTER/bin/linux64/refin
REMARK            -p \                                                          
REMARK            /dls/labxchem/data/lb32627/lb32627-65/processing/analysis/mode
REMARK            -m \                                                          
REMARK            /dls/labxchem/data/lb32627/lb32627-65/processing/analysis/mode
REMARK            -l \                                                          
REMARK            /dls/labxchem/data/lb32627/lb32627-65/processing/analysis/mode
REMARK            -autoncs -M TLSbasic -WAT -B user -Gelly gelly.dat \          
REMARK            StopOnGellySanityCheckError=no -d Refine_4                    
REMARK Files used:                                                              
REMARK   PDB              = Refine_4/pdbchk.pdb                                 
REMARK   MTZ              = /dls/labxchem/data/lb32627/lb32627-65/processing/ana
REMARK   Gelly commands       = /dls/labxchem/data/lb32627/lb32627-65/processing
REMARK output written to subdirectory = Refine_4                                
REMARK best refinement for F,SIGF with R/Rfree 0.2189/0.2543                    
REMARK header records are copied from input PDB file (apart from REMARK 3!)     
REMARK --------------------- added by autoBUSTER -------------------------------
REMARK --------------------- added by autoBUSTER -------------------------------
REMARK run at   = Tue May 23 17:05:43 BST 2023                                  
REMARK     in   = /dls/labxchem/data/lb32627/lb32627-65/processing/analysis/mode
REMARK     user = xau79897                                                      
REMARK     cmd  = \                                                             
REMARK            /dls_sw/apps/GPhL/BUSTER/20230217/autoBUSTER/bin/linux64/refin
REMARK            -p \                                                          
REMARK            /dls/labxchem/data/lb32627/lb32627-65/processing/analysis/mode
REMARK            -m \                                                          
REMARK            /dls/labxchem/data/lb32627/lb32627-65/processing/analysis/mode
REMARK            -l \                                                          
REMARK            /dls/labxchem/data/lb32627/lb32627-65/processing/analysis/mode
REMARK            -autoncs -M TLSbasic -d Refine_3                              
REMARK Files used:                                                              
REMARK   PDB              = Refine_3/pdbchk.pdb                                 
REMARK   MTZ              = /dls/labxchem/data/lb32627/lb32627-65/processing/ana
REMARK output written to subdirectory = Refine_3                                
REMARK best refinement for F,SIGF with R/Rfree 0.2270/0.2550                    
REMARK header records are copied from input PDB file (apart from REMARK 3!)     
REMARK --------------------- added by autoBUSTER -------------------------------
REMARK   2                                                            
REMARK   2 RESOLUTION.    1.42 ANGSTROMS.
REMARK   3
REMARK   3 REFINEMENT.
REMARK   3   PROGRAM     : BUSTER 2.10.4 (26-JUL-2023)
REMARK   3   AUTHORS     : BRICOGNE,BLANC,BRANDL,FLENSBURG,KELLER,
REMARK   3               : PACIOREK,ROVERSI,SHARFF,SMART,VONRHEIN,WOMACK;
REMARK   3               : MATTHEWS,TEN EYCK,TRONRUD
REMARK   3
REMARK   3  DATA USED IN REFINEMENT.
REMARK   3   RESOLUTION RANGE HIGH (ANGSTROMS) : 1.419
REMARK   3   RESOLUTION RANGE LOW  (ANGSTROMS) : 26.37
REMARK   3   DATA CUTOFF            (SIGMA(F)) : 0.000
REMARK   3   COMPLETENESS FOR RANGE        (%) : 91.0
REMARK   3   NUMBER OF REFLECTIONS             : 35832
REMARK   3
REMARK   3  FIT TO DATA USED IN REFINEMENT.
REMARK   3   CROSS-VALIDATION METHOD          : THROUGHOUT
REMARK   3   FREE R VALUE TEST SET SELECTION  : RANDOM
REMARK   3   R VALUE     (WORKING + TEST SET) : 0.2201
REMARK   3   R VALUE            (WORKING SET) : 0.2184
REMARK   3   FREE R VALUE                     : 0.2526
REMARK   3   FREE R VALUE TEST SET SIZE   (%) : 5.050
REMARK   3   FREE R VALUE TEST SET COUNT      : 1810
REMARK   3   ESTIMATED ERROR OF FREE R VALUE  : NULL
REMARK   3
REMARK   3  FIT IN THE HIGHEST RESOLUTION BIN.
REMARK   3   TOTAL NUMBER OF BINS USED           : 51
REMARK   3   BIN RESOLUTION RANGE HIGH       (A) : 1.42
REMARK   3   BIN RESOLUTION RANGE LOW        (A) : 1.47
REMARK   3   BIN COMPLETENESS (WORKING+TEST) (%) : 17.98
REMARK   3   REFLECTIONS IN BIN   (WORKING+TEST) : 717
REMARK   3   BIN R VALUE          (WORKING+TEST) : 0.5381
REMARK   3   REFLECTIONS IN BIN    (WORKING SET) : 683
REMARK   3   BIN R VALUE           (WORKING SET) : 0.5419
REMARK   3   BIN FREE R VALUE                    : 0.4640
REMARK   3   BIN FREE R VALUE TEST SET SIZE  (%) : 4.74
REMARK   3   BIN FREE R VALUE TEST SET COUNT     : 34
REMARK   3   ESTIMATED ERROR OF BIN FREE R VALUE : NULL
REMARK   3
REMARK   3  NUMBER OF NON-HYDROGEN ATOMS USED IN REFINEMENT.
REMARK   3   PROTEIN ATOMS            : 1476
REMARK   3   NUCLEIC ACID ATOMS       : 0
REMARK   3   HETEROGEN ATOMS          : 18
REMARK   3   SOLVENT ATOMS            : 150
REMARK   3
REMARK   3  B VALUES.
REMARK   3   FROM WILSON PLOT           (A**2) : 29.80
REMARK   3   MEAN B VALUE      (OVERALL, A**2) : 44.43
REMARK   3   OVERALL ANISOTROPIC B VALUE.
REMARK   3    B11 (A**2) : -4.69070
REMARK   3    B22 (A**2) : -4.69070
REMARK   3    B33 (A**2) : 9.38140
REMARK   3    B12 (A**2) : 0.00000
REMARK   3    B13 (A**2) : 0.00000
REMARK   3    B23 (A**2) : 0.00000
REMARK   3
REMARK   3  ESTIMATED COORDINATE ERROR.
REMARK   3   ESD FROM LUZZATI PLOT                    (A) : 0.28
REMARK   3   DPI (BLOW EQ-10) BASED ON R VALUE        (A) : 0.082
REMARK   3   DPI (BLOW EQ-9) BASED ON FREE R VALUE    (A) : 0.084
REMARK   3   DPI (CRUICKSHANK) BASED ON R VALUE       (A) : 0.077
REMARK   3   DPI (CRUICKSHANK) BASED ON FREE R VALUE  (A) : 0.080
REMARK   3
REMARK   3   REFERENCES: BLOW, D. (2002) ACTA CRYST D58, 792-797
REMARK   3               CRUICKSHANK, D.W.J. (1999) ACTA CRYST D55, 583-601
REMARK   3
REMARK   3  CORRELATION COEFFICIENTS.
REMARK   3   CORRELATION COEFFICIENT FO-FC      : 0.955
REMARK   3   CORRELATION COEFFICIENT FO-FC FREE : 0.940
REMARK   3
REMARK   3  X-RAY WEIGHT : 6.39
REMARK   3
REMARK   3  GEOMETRY FUNCTION.                                                  
REMARK   3   RESTRAINT LIBRARIES.                                               
REMARK   3    NUMBER OF LIBRARIES USED :   9                                    
REMARK   3    LIBRARY  1 : protgeo_eh99.dat (V1.6.4.20) 20220523  STANDARD      
REMARK   3                 AMINO ACID DICTIONARY. BONDS AND ANGLES FROM         
REMARK   3                 ENGH AND HUBER EH99. OTHER VALUES BASED ON           
REMARK   3                 PREVIOUS TNT OR TAKEN FROM CCP4. INCLUDES            
REMARK   3                 HYDROGEN ATOMS.                                      
REMARK   3    LIBRARY  2 : exoticaa.dat (V1.3.4.16) 20220523  COLLECTION        
REMARK   3                 OF NON-STANDARD AMINO ACIDS, MAINLY EH91             
REMARK   3                 WITHOUT IDEAL DISTANCE INFO                          
REMARK   3    LIBRARY  3 : nuclgeo.dat (V1.13.4.9) 20221011                     
REMARK   3    LIBRARY  4 : bcorrel.dat (V1.15.10.2) 20190616                    
REMARK   3    LIBRARY  5 : contact.dat (V1.15.12.10) 20191121                   
REMARK   3    LIBRARY  6 : idealdist_contact.dat (V1.3.4.14) 20230724           
REMARK   3                 IDEAL-DISTANCE CONTACT TERM DATA AS USED IN          
REMARK   3                 PROLSQ. VALUES USED HERE ARE BASEd ON DATA           
REMARK   3                 HARVESTING OF PDB AS OF 20190109                     
REMARK   3    LIBRARY  7 : restraints for LIG (unknown) from cif                
REMARK   3                 dictionary Z362020366.cif; generated by GRADE        
REMARK   3                 1.2.21 (Feb 03 2022) from SMILES                     
REMARK   3                 NC1=NN=C2C=CC=CN12 using MOGUL 1.8.5(274361),        
REMARK   3                 CSD as541be, with quantum mechanics RM1              
REMARK   3    LIBRARY  8 : restraints for DMS (DIMETHYL SULFOXIDE) from         
REMARK   3                 cif dictionary DMS.cif; generated by grade2          
REMARK   3                 version 1.1.0a7 from                                 
REMARK   3                 PDB_chemical_components_definition_file              
REMARK   3                 ftp://ftp.ebi.ac.uk/pub/databases/msd/pdbechem_v     
REMARK   3                 2/D/DMS/DMS.cif using RDKit 2021.03.4                
REMARK   3                 ((DatabaseID PDB-DMS))                               
REMARK   3    LIBRARY  9 : assume.dat (V1.9.4.3) 20221011                       
REMARK   3                                                                      
REMARK   3   NUMBER OF GEOMETRIC FUNCTION TERMS DEFINED : 15                    
REMARK   3   TERM                          COUNT    WEIGHT   FUNCTION.          
REMARK   3    BOND LENGTHS              :   1588 ;   2.00 ;  HARMONIC           
REMARK   3    BOND ANGLES               :   2163 ;   2.00 ;  HARMONIC           
REMARK   3    TORSION ANGLES            :    532 ;   2.00 ;  SINUSOIDAL         
REMARK   3    TRIGONAL CARBON PLANES    :   NULL ;   NULL ;  NULL               
REMARK   3    GENERAL PLANES            :    284 ;   5.00 ;  HARMONIC           
REMARK   3    ISOTROPIC THERMAL FACTORS :   1588 ;  10.00 ;  HARMONIC           
REMARK   3    BAD NON-BONDED CONTACTS   :   NULL ;   NULL ;  NULL               
REMARK   3    IMPROPER TORSIONS         :   NULL ;   NULL ;  NULL               
REMARK   3    PSEUDOROTATION ANGLES     :   NULL ;   NULL ;  NULL               
REMARK   3    CHIRAL IMPROPER TORSION   :    195 ;   5.00 ;  SEMIHARMONIC       
REMARK   3    SUM OF OCCUPANCIES        :   NULL ;   NULL ;  NULL               
REMARK   3    UTILITY DISTANCES         :   NULL ;   NULL ;  NULL               
REMARK   3    UTILITY ANGLES            :   NULL ;   NULL ;  NULL               
REMARK   3    UTILITY TORSION           :   NULL ;   NULL ;  NULL               
REMARK   3    IDEAL-DIST CONTACT TERM   :   1362 ;   4.00 ;  SEMIHARMONIC       
REMARK   3                                                                      
REMARK   3   RMS DEVIATIONS FROM IDEAL VALUES.                                  
REMARK   3   BOND LENGTHS                       (A) : 0.011                     
REMARK   3   BOND ANGLES                  (DEGREES) : 1.08                      
REMARK   3   PEPTIDE OMEGA TORSION ANGLES (DEGREES) : 4.20                      
REMARK   3   OTHER TORSION ANGLES         (DEGREES) : 15.57                     
REMARK   3                                                                      
REMARK   3   SIMILARITY.                                                        
REMARK   3    NCS.                                                              
REMARK   3     NCS METHOD: NONE                                                 
REMARK   3    TARGET RESTRAINTS.                                                
REMARK   3     TARGET REPRESENTATION : NONE                                     
REMARK   3     TARGET STRUCTURE : NULL                                          
REMARK   3                                                                      
REMARK   3  TLS DETAILS.                                                        
REMARK   3   NUMBER OF TLS GROUPS  :            2                               
REMARK   3                                                                      
REMARK   3   TLS GROUP :            1                                           
REMARK   3    SET : { A|* }                                                     
REMARK   3    ORIGIN FOR THE GROUP (A):  -14.3224   -1.1049  -19.7155           
REMARK   3    T TENSOR                                                          
REMARK   3     T11:    0.0749 T22:    0.0143                                    
REMARK   3     T33:   -0.0962 T12:    0.1020                                    
REMARK   3     T13:    0.0691 T23:    0.0189                                    
REMARK   3    L TENSOR                                                          
REMARK   3     L11:    3.4261 L22:    3.7024                                    
REMARK   3     L33:    3.1180 L12:   -2.4766                                    
REMARK   3     L13:    0.5904 L23:   -0.2448                                    
REMARK   3    S TENSOR                                                          
REMARK   3     S11:    0.4135 S12:    0.5522 S13:    0.0004                     
REMARK   3     S21:   -0.5950 S22:   -0.3770 S23:    0.0230                     
REMARK   3     S31:    0.0442 S32:    0.4219 S33:   -0.0365                     
REMARK   3                                                                      
REMARK   3   TLS GROUP :            2                                           
REMARK   3    SET : { B|* }                                                     
REMARK   3    ORIGIN FOR THE GROUP (A):  -18.7448    1.4963  -15.4725           
REMARK   3    T TENSOR                                                          
REMARK   3     T11:    0.0783 T22:   -0.0205                                    
REMARK   3     T33:   -0.0482 T12:    0.1066                                    
REMARK   3     T13:    0.0101 T23:    0.0127                                    
REMARK   3    L TENSOR                                                          
REMARK   3     L11:    1.1072 L22:    0.8503                                    
REMARK   3     L33:    2.1512 L12:   -0.8607                                    
REMARK   3     L13:    0.7481 L23:    0.0583                                    
REMARK   3    S TENSOR                                                          
REMARK   3     S11:    0.2283 S12:    0.1246 S13:    0.0464                     
REMARK   3     S21:   -0.1507 S22:   -0.2298 S23:    0.0712                     
REMARK   3     S31:   -0.0259 S32:    0.2123 S33:    0.0015                     
REMARK   3                                                                      
REMARK   3  REFINEMENT NOTES.                                                   
REMARK   3   NUMBER OF REFINEMENT NOTES :   1                                   
REMARK   3   NOTE   1 : IDEAL-DIST CONTACT TERM CONTACT SETUP. ALL ATOMS        
REMARK   3               HAVE CCP4 ATOM TYPE FROM LIBRARY                       
REMARK   3
REMARK   3  OTHER REFINEMENT REMARKS: NULL
REMARK   3
REMARK 290                                                            
REMARK 290 CRYSTALLOGRAPHIC SYMMETRY                                  
REMARK 290 SYMMETRY OPERATORS FOR SPACE GROUP: P 43 2 2               
REMARK 290                                                            
REMARK 290      SYMOP   SYMMETRY                                      
REMARK 290     NNNMMM   OPERATOR                                      
REMARK 290       1555   X,Y,Z                                         
REMARK 290       2555   -X,-Y,1/2+Z                                   
REMARK 290       3555   -Y,X,3/4+Z                                    
REMARK 290       4555   Y,-X,1/4+Z                                    
REMARK 290       5555   -X,Y,-Z                                       
REMARK 290       6555   X,-Y,1/2-Z                                    
REMARK 290       7555   Y,X,1/4-Z                                     
REMARK 290       8555   -Y,-X,3/4-Z                                   
REMARK 290                                                            
REMARK 290     WHERE NNN -> OPERATOR NUMBER                           
REMARK 290           MMM -> TRANSLATION VECTOR                        
REMARK 290                                                            
REMARK 290 CRYSTALLOGRAPHIC SYMMETRY TRANSFORMATIONS                  
REMARK 290 THE FOLLOWING TRANSFORMATIONS OPERATE ON THE ATOM/HETATM   
REMARK 290 RECORDS IN THIS ENTRY TO PRODUCE CRYSTALLOGRAPHICALLY      
REMARK 290 RELATED MOLECULES.                                         
REMARK 290   SMTRY1   1  1.000000  0.000000  0.000000        0.00000
REMARK 290   SMTRY2   1  0.000000  1.000000  0.000000        0.00000
REMARK 290   SMTRY3   1  0.000000  0.000000  1.000000        0.00000
REMARK 290   SMTRY1   2 -1.000000  0.000000  0.000000        0.00000
REMARK 290   SMTRY2   2  0.000000 -1.000000  0.000000        0.00000
REMARK 290   SMTRY3   2  0.000000  0.000000  1.000000      108.41450
REMARK 290   SMTRY1   3  0.000000 -1.000000  0.000000        0.00000
REMARK 290   SMTRY2   3  1.000000  0.000000  0.000000        0.00000
REMARK 290   SMTRY3   3  0.000000  0.000000  1.000000      162.62175
REMARK 290   SMTRY1   4  0.000000  1.000000  0.000000        0.00000
REMARK 290   SMTRY2   4 -1.000000  0.000000  0.000000        0.00000
REMARK 290   SMTRY3   4  0.000000  0.000000  1.000000       54.20725
REMARK 290   SMTRY1   5 -1.000000  0.000000  0.000000        0.00000
REMARK 290   SMTRY2   5  0.000000  1.000000  0.000000        0.00000
REMARK 290   SMTRY3   5  0.000000  0.000000 -1.000000        0.00000
REMARK 290   SMTRY1   6  1.000000  0.000000  0.000000        0.00000
REMARK 290   SMTRY2   6  0.000000 -1.000000  0.000000        0.00000
REMARK 290   SMTRY3   6  0.000000  0.000000 -1.000000      108.41450
REMARK 290   SMTRY1   7  0.000000  1.000000  0.000000        0.00000
REMARK 290   SMTRY2   7  1.000000  0.000000  0.000000        0.00000
REMARK 290   SMTRY3   7  0.000000  0.000000 -1.000000       54.20725
REMARK 290   SMTRY1   8  0.000000 -1.000000  0.000000        0.00000
REMARK 290   SMTRY2   8 -1.000000  0.000000  0.000000        0.00000
REMARK 290   SMTRY3   8  0.000000  0.000000 -1.000000      162.62175
REMARK 290                                                            
REMARK 290 REMARK: NULL                                               
CRYST1   42.675   42.675  216.829  90.00  90.00  90.00 P 43 2 2                 


$$$$
Zx0435a_ligand
  PyMOL3.0          3D                             0

 10 11  0  0  0  0  0  0  0  0999 V2000
   -6.3040    4.8850  -18.9900 C   0  0  0  0  0  0  0  0  0  0  0  0
   -6.3910    4.8920  -20.3220 N   0  0  0  0  0  0  0  0  0  0  0  0
   -6.8870    4.7290  -16.8830 C   0  0  0  0  0  0  0  0  0  0  0  0
   -7.4130    4.7050  -18.1750 N   0  0  0  0  0  0  0  0  0  0  0  0
   -8.7600    4.5110  -18.4160 C   0  0  0  0  0  0  0  0  0  0  0  0
   -5.5740    4.9080  -16.9170 N   0  0  0  0  0  0  0  0  0  0  0  0
   -9.6020    4.3390  -17.3720 C   0  0  0  0  0  0  0  0  0  0  0  0
   -5.2030    5.0040  -18.2610 N   0  0  0  0  0  0  0  0  0  0  0  0
   -9.1050    4.3520  -16.0470 C   0  0  0  0  0  0  0  0  0  0  0  0
   -7.7760    4.5370  -15.7970 C   0  0  0  0  0  0  0  0  0  0  0  0
  1  4  4  0  0  0  0
  1  8  4  0  0  0  0
  1  2  1  0  0  0  0
  3  6  4  0  0  0  0
  3 10  4  0  0  0  0
  3  4  4  0  0  0  0
  4  5  4  0  0  0  0
  5  7  4  0  0  0  0
  6  8  4  0  0  0  0
  7  9  4  0  0  0  0
  9 10  4  0  0  0  0
M  END
>  <pdb_header>
COMPND    XX01ZVNS2B-x0435_B_301_XX01ZVNS2B-x1291+B+301+1


$$$$
Zx0455a
  PyMOL3.0          3D                             0

 10 11  0  0  0  0  0  0  0  0999 V2000
   -6.1250    5.2160  -17.2190 N   0  0  0  0  0  0  0  0  0  0  0  0
   -6.3070    4.6880  -14.7950 C   0  0  0  0  0  0  0  0  0  0  0  0
   -5.5440    5.4080  -15.8960 C   0  0  0  0  0  0  0  0  0  0  0  0
   -9.5650    4.1730  -16.5090 N   0  0  0  0  0  0  0  0  0  0  0  0
   -7.4260    4.8260  -17.4170 C   0  0  0  0  0  0  0  0  0  0  0  0
   -7.9190    4.6380  -18.7040 C   0  0  0  0  0  0  0  0  0  0  0  0
   -9.2330    4.2310  -18.8790 C   0  0  0  0  0  0  0  0  0  0  0  0
  -10.0130    4.0170  -17.7640 C   0  0  0  0  0  0  0  0  0  0  0  0
   -8.2950    4.5720  -16.3400 C   0  0  0  0  0  0  0  0  0  0  0  0
   -7.8230    4.7190  -14.9190 C   0  0  0  0  0  0  0  0  0  0  0  0
  1  3  1  0  0  0  0
  2  3  1  0  0  0  0
  4  8  4  0  0  0  0
  1  5  1  0  0  0  0
  5  6  4  0  0  0  0
  6  7  4  0  0  0  0
  7  8  4  0  0  0  0
  4  9  4  0  0  0  0
  5  9  4  0  0  0  0
  2 10  1  0  0  0  0
  9 10  1  0  0  0  0
M  END
>  <pdb_header>
HEADER    ----                                    23-FEB-23                     
TITLE     ---                                                                   
EXPDTA    X-RAY DIFFRACTION                                                     
REMARK --------------------- added by autoBUSTER ---------------------------------START
REMARK run at   = Fri Sep 29 10:09:01 BST 2023
REMARK     in   = /dls/labxchem/data/lb32627/lb32627-65/processing/analysis/model_building/XX01ZVNS2B-x0455
REMARK     user = kyf22269
REMARK     cmd  = \
REMARK            /dls_sw/apps/GPhL/BUSTER/20230726/autoBUSTER/bin/linux64/refine \
REMARK            -p \
REMARK            /dls/labxchem/data/lb32627/lb32627-65/processing/analysis/model_building/XX01ZVNS2B-x0455/cootOut/Refi
REMARK            -m \
REMARK            /dls/labxchem/data/lb32627/lb32627-65/processing/analysis/model_building/XX01ZVNS2B-x0455/XX01ZVNS2B-x
REMARK            -l \
REMARK            /dls/labxchem/data/lb32627/lb32627-65/processing/analysis/model_building/XX01ZVNS2B-x0455/Z212053854.c
REMARK            -autoncs -M TLSbasic -d Refine_8
REMARK Files used:
REMARK   PDB              = Refine_8/pdbchk.pdb
REMARK   MTZ              = /dls/labxchem/data/lb32627/lb32627-65/processing/analysis/model_building/XX01ZVNS2B-x0455/XX
REMARK output written to subdirectory = Refine_8
REMARK best refinement for F,SIGF with R/Rfree 0.2196/0.2491
REMARK header records are copied from input PDB file (apart from REMARK 3!)
REMARK --------------------- added by autoBUSTER -----------------------------------END
REMARK --------------------- added by autoBUSTER -------------------------------
REMARK run at   = Wed Jun 14 20:02:46 BST 2023                                  
REMARK     in   = /dls/labxchem/data/lb32627/lb32627-65/processing/analysis/mode
REMARK     user = xau79897                                                      
REMARK     cmd  = \                                                             
REMARK            /dls_sw/apps/GPhL/BUSTER/20230614/autoBUSTER/bin/linux64/refin
REMARK            -p \                                                          
REMARK            /dls/labxchem/data/lb32627/lb32627-65/processing/analysis/mode
REMARK            -m \                                                          
REMARK            /dls/labxchem/data/lb32627/lb32627-65/processing/analysis/mode
REMARK            -l \                                                          
REMARK            /dls/labxchem/data/lb32627/lb32627-65/processing/analysis/mode
REMARK            -autoncs -M TLSbasic StopOnGellySanityCheckError=no -d \      
REMARK            Refine_7                                                      
REMARK Files used:                                                              
REMARK   PDB              = Refine_7/pdbchk.pdb                                 
REMARK   MTZ              = /dls/labxchem/data/lb32627/lb32627-65/processing/ana
REMARK output written to subdirectory = Refine_7                                
REMARK best refinement for F,SIGF with R/Rfree 0.2196/0.2490                    
REMARK header records are copied from input PDB file (apart from REMARK 3!)     
REMARK --------------------- added by autoBUSTER -------------------------------
REMARK --------------------- added by autoBUSTER -------------------------------
REMARK run at   = Tue May 30 17:08:51 BST 2023                                  
REMARK     in   = /dls/labxchem/data/lb32627/lb32627-65/processing/analysis/mode
REMARK     user = xau79897                                                      
REMARK     cmd  = \                                                             
REMARK            /dls_sw/apps/GPhL/BUSTER/20230217/autoBUSTER/bin/linux64/refin
REMARK            -p \                                                          
REMARK            /dls/labxchem/data/lb32627/lb32627-65/processing/analysis/mode
REMARK            -m \                                                          
REMARK            /dls/labxchem/data/lb32627/lb32627-65/processing/analysis/mode
REMARK            -l \                                                          
REMARK            /dls/labxchem/data/lb32627/lb32627-65/processing/analysis/mode
REMARK            -autoncs -M TLSbasic -B user -Gelly gelly.dat \               
REMARK            StopOnGellySanityCheckError=no -d Refine_6                    
REMARK Files used:                                                              
REMARK   PDB              = Refine_6/pdbchk.pdb                                 
REMARK   MTZ              = /dls/labxchem/data/lb32627/lb32627-65/processing/ana
REMARK   Gelly commands       = /dls/labxchem/data/lb32627/lb32627-65/processing
REMARK output written to subdirectory = Refine_6                                
REMARK best refinement for F,SIGF with R/Rfree 0.2196/0.2479                    
REMARK header records are copied from input PDB file (apart from REMARK 3!)     
REMARK --------------------- added by autoBUSTER -------------------------------
REMARK --------------------- added by autoBUSTER -------------------------------
REMARK run at   = Mon May 29 19:30:46 BST 2023                                  
REMARK     in   = /dls/labxchem/data/lb32627/lb32627-65/processing/analysis/mode
REMARK     user = xau79897                                                      
REMARK     cmd  = \                                                             
REMARK            /dls_sw/apps/GPhL/BUSTER/20230217/autoBUSTER/bin/linux64/refin
REMARK            -p \                                                          
REMARK            /dls/labxchem/data/lb32627/lb32627-65/processing/analysis/mode
REMARK            -m \                                                          
REMARK            /dls/labxchem/data/lb32627/lb32627-65/processing/analysis/mode
REMARK            -l \                                                          
REMARK            /dls/labxchem/data/lb32627/lb32627-65/processing/analysis/mode
REMARK            -autoncs -M TLSbasic -B user -Gelly gelly.dat \               
REMARK            StopOnGellySanityCheckError=no -d Refine_5                    
REMARK Files used:                                                              
REMARK   PDB              = Refine_5/pdbchk.pdb                                 
REMARK   MTZ              = /dls/labxchem/data/lb32627/lb32627-65/processing/ana
REMARK   Gelly commands       = /dls/labxchem/data/lb32627/lb32627-65/processing
REMARK output written to subdirectory = Refine_5                                
REMARK best refinement for F,SIGF with R/Rfree 0.2197/0.2471                    
REMARK header records are copied from input PDB file (apart from REMARK 3!)     
REMARK --------------------- added by autoBUSTER -------------------------------
REMARK --------------------- added by autoBUSTER -------------------------------
REMARK run at   = Wed May 24 13:43:34 BST 2023                                  
REMARK     in   = /dls/labxchem/data/lb32627/lb32627-65/processing/analysis/mode
REMARK     user = xau79897                                                      
REMARK     cmd  = \                                                             
REMARK            /dls_sw/apps/GPhL/BUSTER/20230217/autoBUSTER/bin/linux64/refin
REMARK            -p \                                                          
REMARK            /dls/labxchem/data/lb32627/lb32627-65/processing/analysis/mode
REMARK            -m \                                                          
REMARK            /dls/labxchem/data/lb32627/lb32627-65/processing/analysis/mode
REMARK            -l \                                                          
REMARK            /dls/labxchem/data/lb32627/lb32627-65/processing/analysis/mode
REMARK            -autoncs -M TLSbasic -WAT -B user -Gelly gelly.dat \          
REMARK            StopOnGellySanityCheckError=no -d Refine_4                    
REMARK Files used:                                                              
REMARK   PDB              = Refine_4/pdbchk.pdb                                 
REMARK   MTZ              = /dls/labxchem/data/lb32627/lb32627-65/processing/ana
REMARK   Gelly commands       = /dls/labxchem/data/lb32627/lb32627-65/processing
REMARK output written to subdirectory = Refine_4                                
REMARK best refinement for F,SIGF with R/Rfree 0.2194/0.2475                    
REMARK header records are copied from input PDB file (apart from REMARK 3!)     
REMARK --------------------- added by autoBUSTER -------------------------------
REMARK --------------------- added by autoBUSTER -------------------------------
REMARK run at   = Tue May 23 17:06:30 BST 2023                                  
REMARK     in   = /dls/labxchem/data/lb32627/lb32627-65/processing/analysis/mode
REMARK     user = xau79897                                                      
REMARK     cmd  = \                                                             
REMARK            /dls_sw/apps/GPhL/BUSTER/20230217/autoBUSTER/bin/linux64/refin
REMARK            -p \                                                          
REMARK            /dls/labxchem/data/lb32627/lb32627-65/processing/analysis/mode
REMARK            -m \                                                          
REMARK            /dls/labxchem/data/lb32627/lb32627-65/processing/analysis/mode
REMARK            -l \                                                          
REMARK            /dls/labxchem/data/lb32627/lb32627-65/processing/analysis/mode
REMARK            -autoncs -M TLSbasic -d Refine_3                              
REMARK Files used:                                                              
REMARK   PDB              = Refine_3/pdbchk.pdb                                 
REMARK   MTZ              = /dls/labxchem/data/lb32627/lb32627-65/processing/ana
REMARK output written to subdirectory = Refine_3                                
REMARK best refinement for F,SIGF with R/Rfree 0.2346/0.2458                    
REMARK header records are copied from input PDB file (apart from REMARK 3!)     
REMARK --------------------- added by autoBUSTER -------------------------------
REMARK   2                                                            
REMARK   2 RESOLUTION.    1.37 ANGSTROMS.
REMARK   3
REMARK   3 REFINEMENT.
REMARK   3   PROGRAM     : BUSTER 2.10.4 (26-JUL-2023)
REMARK   3   AUTHORS     : BRICOGNE,BLANC,BRANDL,FLENSBURG,KELLER,
REMARK   3               : PACIOREK,ROVERSI,SHARFF,SMART,VONRHEIN,WOMACK;
REMARK   3               : MATTHEWS,TEN EYCK,TRONRUD
REMARK   3
REMARK   3  DATA USED IN REFINEMENT.
REMARK   3   RESOLUTION RANGE HIGH (ANGSTROMS) : 1.370
REMARK   3   RESOLUTION RANGE LOW  (ANGSTROMS) : 54.17
REMARK   3   DATA CUTOFF            (SIGMA(F)) : 0.000
REMARK   3   COMPLETENESS FOR RANGE        (%) : 89.4
REMARK   3   NUMBER OF REFLECTIONS             : 39137
REMARK   3
REMARK   3  FIT TO DATA USED IN REFINEMENT.
REMARK   3   CROSS-VALIDATION METHOD          : THROUGHOUT
REMARK   3   FREE R VALUE TEST SET SELECTION  : RANDOM
REMARK   3   R VALUE     (WORKING + TEST SET) : 0.2210
REMARK   3   R VALUE            (WORKING SET) : 0.2196
REMARK   3   FREE R VALUE                     : 0.2491
REMARK   3   FREE R VALUE TEST SET SIZE   (%) : 5.050
REMARK   3   FREE R VALUE TEST SET COUNT      : 1978
REMARK   3   ESTIMATED ERROR OF FREE R VALUE  : NULL
REMARK   3
REMARK   3  FIT IN THE HIGHEST RESOLUTION BIN.
REMARK   3   TOTAL NUMBER OF BINS USED           : 51
REMARK   3   BIN RESOLUTION RANGE HIGH       (A) : 1.37
REMARK   3   BIN RESOLUTION RANGE LOW        (A) : 1.43
REMARK   3   BIN COMPLETENESS (WORKING+TEST) (%) : 16.00
REMARK   3   REFLECTIONS IN BIN   (WORKING+TEST) : 783
REMARK   3   BIN R VALUE          (WORKING+TEST) : 0.6554
REMARK   3   REFLECTIONS IN BIN    (WORKING SET) : 743
REMARK   3   BIN R VALUE           (WORKING SET) : 0.6570
REMARK   3   BIN FREE R VALUE                    : 0.6245
REMARK   3   BIN FREE R VALUE TEST SET SIZE  (%) : 5.11
REMARK   3   BIN FREE R VALUE TEST SET COUNT     : 40
REMARK   3   ESTIMATED ERROR OF BIN FREE R VALUE : NULL
REMARK   3
REMARK   3  NUMBER OF NON-HYDROGEN ATOMS USED IN REFINEMENT.
REMARK   3   PROTEIN ATOMS            : 1476
REMARK   3   NUCLEIC ACID ATOMS       : 0
REMARK   3   HETEROGEN ATOMS          : 14
REMARK   3   SOLVENT ATOMS            : 152
REMARK   3
REMARK   3  B VALUES.
REMARK   3   FROM WILSON PLOT           (A**2) : 28.12
REMARK   3   MEAN B VALUE      (OVERALL, A**2) : 44.71
REMARK   3   OVERALL ANISOTROPIC B VALUE.
REMARK   3    B11 (A**2) : -5.34830
REMARK   3    B22 (A**2) : -5.34830
REMARK   3    B33 (A**2) : 10.69660
REMARK   3    B12 (A**2) : 0.00000
REMARK   3    B13 (A**2) : 0.00000
REMARK   3    B23 (A**2) : 0.00000
REMARK   3
REMARK   3  ESTIMATED COORDINATE ERROR.
REMARK   3   ESD FROM LUZZATI PLOT                    (A) : 0.29
REMARK   3   DPI (BLOW EQ-10) BASED ON R VALUE        (A) : 0.075
REMARK   3   DPI (BLOW EQ-9) BASED ON FREE R VALUE    (A) : 0.076
REMARK   3   DPI (CRUICKSHANK) BASED ON R VALUE       (A) : 0.070
REMARK   3   DPI (CRUICKSHANK) BASED ON FREE R VALUE  (A) : 0.073
REMARK   3
REMARK   3   REFERENCES: BLOW, D. (2002) ACTA CRYST D58, 792-797
REMARK   3               CRUICKSHANK, D.W.J. (1999) ACTA CRYST D55, 583-601
REMARK   3
REMARK   3  CORRELATION COEFFICIENTS.
REMARK   3   CORRELATION COEFFICIENT FO-FC      : 0.951
REMARK   3   CORRELATION COEFFICIENT FO-FC FREE : 0.943
REMARK   3
REMARK   3  X-RAY WEIGHT : 6.01
REMARK   3
REMARK   3  GEOMETRY FUNCTION.                                                  
REMARK   3   RESTRAINT LIBRARIES.                                               
REMARK   3    NUMBER OF LIBRARIES USED :   9                                    
REMARK   3    LIBRARY  1 : protgeo_eh99.dat (V1.6.4.20) 20220523  STANDARD      
REMARK   3                 AMINO ACID DICTIONARY. BONDS AND ANGLES FROM         
REMARK   3                 ENGH AND HUBER EH99. OTHER VALUES BASED ON           
REMARK   3                 PREVIOUS TNT OR TAKEN FROM CCP4. INCLUDES            
REMARK   3                 HYDROGEN ATOMS.                                      
REMARK   3    LIBRARY  2 : exoticaa.dat (V1.3.4.16) 20220523  COLLECTION        
REMARK   3                 OF NON-STANDARD AMINO ACIDS, MAINLY EH91             
REMARK   3                 WITHOUT IDEAL DISTANCE INFO                          
REMARK   3    LIBRARY  3 : nuclgeo.dat (V1.13.4.9) 20221011                     
REMARK   3    LIBRARY  4 : bcorrel.dat (V1.15.10.2) 20190616                    
REMARK   3    LIBRARY  5 : contact.dat (V1.15.12.10) 20191121                   
REMARK   3    LIBRARY  6 : idealdist_contact.dat (V1.3.4.14) 20230724           
REMARK   3                 IDEAL-DISTANCE CONTACT TERM DATA AS USED IN          
REMARK   3                 PROLSQ. VALUES USED HERE ARE BASEd ON DATA           
REMARK   3                 HARVESTING OF PDB AS OF 20190109                     
REMARK   3    LIBRARY  7 : restraints for LIG (unknown) from cif                
REMARK   3                 dictionary Z212053854.cif; generated by GRADE        
REMARK   3                 1.2.21 (Feb 03 2022) from SMILES                     
REMARK   3                 C1CNC=2C=CC=NC2C1 using MOGUL 1.8.5(274361),         
REMARK   3                 CSD as541be, with quantum mechanics RM1              
REMARK   3    LIBRARY  8 : restraints for DMS (DIMETHYL SULFOXIDE) from         
REMARK   3                 cif dictionary DMS.cif; generated by grade2          
REMARK   3                 version 1.1.0a7 from                                 
REMARK   3                 PDB_chemical_components_definition_file              
REMARK   3                 ftp://ftp.ebi.ac.uk/pub/databases/msd/pdbechem_v     
REMARK   3                 2/D/DMS/DMS.cif using RDKit 2021.03.4                
REMARK   3                 ((DatabaseID PDB-DMS))                               
REMARK   3    LIBRARY  9 : assume.dat (V1.9.4.3) 20221011                       
REMARK   3                                                                      
REMARK   3   NUMBER OF GEOMETRIC FUNCTION TERMS DEFINED : 15                    
REMARK   3   TERM                          COUNT    WEIGHT   FUNCTION.          
REMARK   3    BOND LENGTHS              :   1532 ;   2.00 ;  HARMONIC           
REMARK   3    BOND ANGLES               :   2077 ;   2.00 ;  HARMONIC           
REMARK   3    TORSION ANGLES            :    523 ;   2.00 ;  SINUSOIDAL         
REMARK   3    TRIGONAL CARBON PLANES    :   NULL ;   NULL ;  NULL               
REMARK   3    GENERAL PLANES            :    269 ;   5.00 ;  HARMONIC           
REMARK   3    ISOTROPIC THERMAL FACTORS :   1532 ;  10.00 ;  HARMONIC           
REMARK   3    BAD NON-BONDED CONTACTS   :   NULL ;   NULL ;  NULL               
REMARK   3    IMPROPER TORSIONS         :   NULL ;   NULL ;  NULL               
REMARK   3    PSEUDOROTATION ANGLES     :   NULL ;   NULL ;  NULL               
REMARK   3    CHIRAL IMPROPER TORSION   :    190 ;   5.00 ;  SEMIHARMONIC       
REMARK   3    SUM OF OCCUPANCIES        :   NULL ;   NULL ;  NULL               
REMARK   3    UTILITY DISTANCES         :   NULL ;   NULL ;  NULL               
REMARK   3    UTILITY ANGLES            :   NULL ;   NULL ;  NULL               
REMARK   3    UTILITY TORSION           :   NULL ;   NULL ;  NULL               
REMARK   3    IDEAL-DIST CONTACT TERM   :   1295 ;   4.00 ;  SEMIHARMONIC       
REMARK   3                                                                      
REMARK   3   RMS DEVIATIONS FROM IDEAL VALUES.                                  
REMARK   3   BOND LENGTHS                       (A) : 0.012                     
REMARK   3   BOND ANGLES                  (DEGREES) : 1.12                      
REMARK   3   PEPTIDE OMEGA TORSION ANGLES (DEGREES) : 4.34                      
REMARK   3   OTHER TORSION ANGLES         (DEGREES) : 15.36                     
REMARK   3                                                                      
REMARK   3   SIMILARITY.                                                        
REMARK   3    NCS.                                                              
REMARK   3     NCS METHOD: NONE                                                 
REMARK   3    TARGET RESTRAINTS.                                                
REMARK   3     TARGET REPRESENTATION : NONE                                     
REMARK   3     TARGET STRUCTURE : NULL                                          
REMARK   3                                                                      
REMARK   3  TLS DETAILS.                                                        
REMARK   3   NUMBER OF TLS GROUPS  :            2                               
REMARK   3                                                                      
REMARK   3   TLS GROUP :            1                                           
REMARK   3    SET : { A|* }                                                     
REMARK   3    ORIGIN FOR THE GROUP (A):  -13.7875   -1.2111  -19.3179           
REMARK   3    T TENSOR                                                          
REMARK   3     T11:    0.0207 T22:    0.0269                                    
REMARK   3     T33:   -0.1348 T12:    0.1342                                    
REMARK   3     T13:    0.0927 T23:    0.0709                                    
REMARK   3    L TENSOR                                                          
REMARK   3     L11:    2.3146 L22:    2.8548                                    
REMARK   3     L33:    3.0953 L12:   -1.4117                                    
REMARK   3     L13:    1.0106 L23:    0.2280                                    
REMARK   3    S TENSOR                                                          
REMARK   3     S11:    0.3981 S12:    0.4061 S13:    0.2607                     
REMARK   3     S21:   -0.4917 S22:   -0.3556 S23:   -0.2389                     
REMARK   3     S31:   -0.0081 S32:    0.6001 S33:   -0.0425                     
REMARK   3                                                                      
REMARK   3   TLS GROUP :            2                                           
REMARK   3    SET : { B|* }                                                     
REMARK   3    ORIGIN FOR THE GROUP (A):  -18.8273    1.3129  -15.6889           
REMARK   3    T TENSOR                                                          
REMARK   3     T11:    0.0798 T22:   -0.0098                                    
REMARK   3     T33:   -0.0162 T12:    0.1028                                    
REMARK   3     T13:    0.0216 T23:    0.0227                                    
REMARK   3    L TENSOR                                                          
REMARK   3     L11:    1.0780 L22:    0.9581                                    
REMARK   3     L33:    2.0988 L12:   -0.8650                                    
REMARK   3     L13:    0.7730 L23:   -0.0433                                    
REMARK   3    S TENSOR                                                          
REMARK   3     S11:    0.2367 S12:    0.1289 S13:    0.0588                     
REMARK   3     S21:   -0.1750 S22:   -0.2472 S23:    0.0652                     
REMARK   3     S31:   -0.0437 S32:    0.2156 S33:    0.0106                     
REMARK   3                                                                      
REMARK   3  REFINEMENT NOTES.                                                   
REMARK   3   NUMBER OF REFINEMENT NOTES :   1                                   
REMARK   3   NOTE   1 : IDEAL-DIST CONTACT TERM CONTACT SETUP. ALL ATOMS        
REMARK   3               HAVE CCP4 ATOM TYPE FROM LIBRARY                       
REMARK   3
REMARK   3  OTHER REFINEMENT REMARKS: NULL
REMARK   3
REMARK 290                                                            
REMARK 290 CRYSTALLOGRAPHIC SYMMETRY                                  
REMARK 290 SYMMETRY OPERATORS FOR SPACE GROUP: P 43 2 2               
REMARK 290                                                            
REMARK 290      SYMOP   SYMMETRY                                      
REMARK 290     NNNMMM   OPERATOR                                      
REMARK 290       1555   X,Y,Z                                         
REMARK 290       2555   -X,-Y,1/2+Z                                   
REMARK 290       3555   -Y,X,3/4+Z                                    
REMARK 290       4555   Y,-X,1/4+Z                                    
REMARK 290       5555   -X,Y,-Z                                       
REMARK 290       6555   X,-Y,1/2-Z                                    
REMARK 290       7555   Y,X,1/4-Z                                     
REMARK 290       8555   -Y,-X,3/4-Z                                   
REMARK 290                                                            
REMARK 290     WHERE NNN -> OPERATOR NUMBER                           
REMARK 290           MMM -> TRANSLATION VECTOR                        
REMARK 290                                                            
REMARK 290 CRYSTALLOGRAPHIC SYMMETRY TRANSFORMATIONS                  
REMARK 290 THE FOLLOWING TRANSFORMATIONS OPERATE ON THE ATOM/HETATM   
REMARK 290 RECORDS IN THIS ENTRY TO PRODUCE CRYSTALLOGRAPHICALLY      
REMARK 290 RELATED MOLECULES.                                         
REMARK 290   SMTRY1   1  1.000000  0.000000  0.000000        0.00000
REMARK 290   SMTRY2   1  0.000000  1.000000  0.000000        0.00000
REMARK 290   SMTRY3   1  0.000000  0.000000  1.000000        0.00000
REMARK 290   SMTRY1   2 -1.000000  0.000000  0.000000        0.00000
REMARK 290   SMTRY2   2  0.000000 -1.000000  0.000000        0.00000
REMARK 290   SMTRY3   2  0.000000  0.000000  1.000000      108.34900
REMARK 290   SMTRY1   3  0.000000 -1.000000  0.000000        0.00000
REMARK 290   SMTRY2   3  1.000000  0.000000  0.000000        0.00000
REMARK 290   SMTRY3   3  0.000000  0.000000  1.000000      162.52350
REMARK 290   SMTRY1   4  0.000000  1.000000  0.000000        0.00000
REMARK 290   SMTRY2   4 -1.000000  0.000000  0.000000        0.00000
REMARK 290   SMTRY3   4  0.000000  0.000000  1.000000       54.17450
REMARK 290   SMTRY1   5 -1.000000  0.000000  0.000000        0.00000
REMARK 290   SMTRY2   5  0.000000  1.000000  0.000000        0.00000
REMARK 290   SMTRY3   5  0.000000  0.000000 -1.000000        0.00000
REMARK 290   SMTRY1   6  1.000000  0.000000  0.000000        0.00000
REMARK 290   SMTRY2   6  0.000000 -1.000000  0.000000        0.00000
REMARK 290   SMTRY3   6  0.000000  0.000000 -1.000000      108.34900
REMARK 290   SMTRY1   7  0.000000  1.000000  0.000000        0.00000
REMARK 290   SMTRY2   7  1.000000  0.000000  0.000000        0.00000
REMARK 290   SMTRY3   7  0.000000  0.000000 -1.000000       54.17450
REMARK 290   SMTRY1   8  0.000000 -1.000000  0.000000        0.00000
REMARK 290   SMTRY2   8 -1.000000  0.000000  0.000000        0.00000
REMARK 290   SMTRY3   8  0.000000  0.000000 -1.000000      162.52350
REMARK 290                                                            
REMARK 290 REMARK: NULL                                               
CRYST1   42.744   42.744  216.698  90.00  90.00  90.00 P 43 2 2                 


$$$$
Zx0455a_ligand
  PyMOL3.0          3D                             0

 10 11  0  0  0  0  0  0  0  0999 V2000
   -7.8230    4.7190  -14.9190 C   0  0  0  0  0  0  0  0  0  0  0  0
   -6.1250    5.2160  -17.2190 N   0  0  0  0  0  0  0  0  0  0  0  0
   -6.3070    4.6880  -14.7950 C   0  0  0  0  0  0  0  0  0  0  0  0
   -9.5650    4.1730  -16.5090 N   0  0  0  0  0  0  0  0  0  0  0  0
   -8.2950    4.5720  -16.3400 C   0  0  0  0  0  0  0  0  0  0  0  0
   -7.4260    4.8260  -17.4170 C   0  0  0  0  0  0  0  0  0  0  0  0
   -5.5440    5.4080  -15.8960 C   0  0  0  0  0  0  0  0  0  0  0  0
  -10.0130    4.0170  -17.7640 C   0  0  0  0  0  0  0  0  0  0  0  0
   -9.2330    4.2310  -18.8790 C   0  0  0  0  0  0  0  0  0  0  0  0
   -7.9190    4.6380  -18.7040 C   0  0  0  0  0  0  0  0  0  0  0  0
  1  3  1  0  0  0  0
  1  5  1  0  0  0  0
  2  7  1  0  0  0  0
  3  7  1  0  0  0  0
  4  8  4  0  0  0  0
  4  5  4  0  0  0  0
  5  6  4  0  0  0  0
  2  6  1  0  0  0  0
  6 10  4  0  0  0  0
  8  9  4  0  0  0  0
  9 10  4  0  0  0  0
M  END
>  <pdb_header>
COMPND    XX01ZVNS2B-x0455_B_204_XX01ZVNS2B-x1291+B+301+1


$$$$
Zx0465a
  PyMOL3.0          3D                             0

 13 14  0  0  0  0  0  0  0  0999 V2000
   -7.2840    4.8260  -17.9000 N   0  0  0  0  0  0  0  0  0  0  0  0
  -10.1470    5.0750  -17.9090 C   0  0  0  0  0  0  0  0  0  0  0  0
  -11.3510    4.9570  -17.9460 O   0  0  0  0  0  0  0  0  0  0  0  0
   -9.3410    5.3060  -19.1530 C   0  0  0  0  0  0  0  0  0  0  0  0
   -5.2930    4.8770  -19.1190 N   0  0  0  0  0  0  0  0  0  0  0  0
   -8.0380    4.5290  -19.1220 C   0  0  0  0  0  0  0  0  0  0  0  0
   -8.0410    4.3930  -16.7150 C   0  0  0  0  0  0  0  0  0  0  0  0
   -9.3870    5.1050  -16.6100 C   0  0  0  0  0  0  0  0  0  0  0  0
   -5.8910    4.8220  -17.9050 C   0  0  0  0  0  0  0  0  0  0  0  0
   -5.1610    4.7460  -16.6970 C   0  0  0  0  0  0  0  0  0  0  0  0
   -3.7740    4.7190  -16.7820 C   0  0  0  0  0  0  0  0  0  0  0  0
   -3.1520    4.7740  -18.0160 C   0  0  0  0  0  0  0  0  0  0  0  0
   -3.9480    4.8510  -19.1480 C   0  0  0  0  0  0  0  0  0  0  0  0
  1  6  1  0  0  0  0
  1  9  1  0  0  0  0
  2  4  1  0  0  0  0
  2  8  1  0  0  0  0
  2  3  2  0  0  0  0
  5 13  4  0  0  0  0
  4  6  1  0  0  0  0
  1  7  1  0  0  0  0
  7  8  1  0  0  0  0
  5  9  4  0  0  0  0
  9 10  4  0  0  0  0
 10 11  4  0  0  0  0
 11 12  4  0  0  0  0
 12 13  4  0  0  0  0
M  END
>  <pdb_header>
HEADER    ----                                    18-MAY-23                     
TITLE     ---                                                                   
EXPDTA    X-RAY DIFFRACTION                                                     
REMARK --------------------- added by autoBUSTER ---------------------------------START
REMARK run at   = Fri Sep 29 10:10:10 BST 2023
REMARK     in   = /dls/labxchem/data/lb32627/lb32627-65/processing/analysis/model_building/XX01ZVNS2B-x0465
REMARK     user = kyf22269
REMARK     cmd  = \
REMARK            /dls_sw/apps/GPhL/BUSTER/20230726/autoBUSTER/bin/linux64/refine \
REMARK            -p \
REMARK            /dls/labxchem/data/lb32627/lb32627-65/processing/analysis/model_building/XX01ZVNS2B-x0465/cootOut/Refi
REMARK            -m \
REMARK            /dls/labxchem/data/lb32627/lb32627-65/processing/analysis/model_building/XX01ZVNS2B-x0465/XX01ZVNS2B-x
REMARK            -l \
REMARK            /dls/labxchem/data/lb32627/lb32627-65/processing/analysis/model_building/XX01ZVNS2B-x0465/Z31113727.ci
REMARK            -autoncs -M TLSbasic -d Refine_7
REMARK Files used:
REMARK   PDB              = Refine_7/pdbchk.pdb
REMARK   MTZ              = /dls/labxchem/data/lb32627/lb32627-65/processing/analysis/model_building/XX01ZVNS2B-x0465/XX
REMARK output written to subdirectory = Refine_7
REMARK best refinement for F,SIGF with R/Rfree 0.2137/0.2430
REMARK header records are copied from input PDB file (apart from REMARK 3!)
REMARK --------------------- added by autoBUSTER -----------------------------------END
REMARK --------------------- added by autoBUSTER -------------------------------
REMARK run at   = Wed Jun 14 20:08:56 BST 2023                                  
REMARK     in   = /dls/labxchem/data/lb32627/lb32627-65/processing/analysis/mode
REMARK     user = xau79897                                                      
REMARK     cmd  = \                                                             
REMARK            /dls_sw/apps/GPhL/BUSTER/20230614/autoBUSTER/bin/linux64/refin
REMARK            -p \                                                          
REMARK            /dls/labxchem/data/lb32627/lb32627-65/processing/analysis/mode
REMARK            -m \                                                          
REMARK            /dls/labxchem/data/lb32627/lb32627-65/processing/analysis/mode
REMARK            -l \                                                          
REMARK            /dls/labxchem/data/lb32627/lb32627-65/processing/analysis/mode
REMARK            -autoncs -M TLSbasic StopOnGellySanityCheckError=no -d \      
REMARK            Refine_6                                                      
REMARK Files used:                                                              
REMARK   PDB              = Refine_6/pdbchk.pdb                                 
REMARK   MTZ              = /dls/labxchem/data/lb32627/lb32627-65/processing/ana
REMARK output written to subdirectory = Refine_6                                
REMARK best refinement for F,SIGF with R/Rfree 0.2136/0.2426                    
REMARK header records are copied from input PDB file (apart from REMARK 3!)     
REMARK --------------------- added by autoBUSTER -------------------------------
REMARK --------------------- added by autoBUSTER -------------------------------
REMARK run at   = Mon May 29 19:34:40 BST 2023                                  
REMARK     in   = /dls/labxchem/data/lb32627/lb32627-65/processing/analysis/mode
REMARK     user = xau79897                                                      
REMARK     cmd  = \                                                             
REMARK            /dls_sw/apps/GPhL/BUSTER/20230217/autoBUSTER/bin/linux64/refin
REMARK            -p \                                                          
REMARK            /dls/labxchem/data/lb32627/lb32627-65/processing/analysis/mode
REMARK            -m \                                                          
REMARK            /dls/labxchem/data/lb32627/lb32627-65/processing/analysis/mode
REMARK            -l \                                                          
REMARK            /dls/labxchem/data/lb32627/lb32627-65/processing/analysis/mode
REMARK            -autoncs -M TLSbasic -B user -Gelly gelly.dat \               
REMARK            StopOnGellySanityCheckError=no -d Refine_5                    
REMARK Files used:                                                              
REMARK   PDB              = Refine_5/pdbchk.pdb                                 
REMARK   MTZ              = /dls/labxchem/data/lb32627/lb32627-65/processing/ana
REMARK   Gelly commands       = /dls/labxchem/data/lb32627/lb32627-65/processing
REMARK output written to subdirectory = Refine_5                                
REMARK best refinement for F,SIGF with R/Rfree 0.2136/0.2431                    
REMARK header records are copied from input PDB file (apart from REMARK 3!)     
REMARK --------------------- added by autoBUSTER -------------------------------
REMARK --------------------- added by autoBUSTER -------------------------------
REMARK run at   = Wed May 24 13:45:59 BST 2023                                  
REMARK     in   = /dls/labxchem/data/lb32627/lb32627-65/processing/analysis/mode
REMARK     user = xau79897                                                      
REMARK     cmd  = \                                                             
REMARK            /dls_sw/apps/GPhL/BUSTER/20230217/autoBUSTER/bin/linux64/refin
REMARK            -p \                                                          
REMARK            /dls/labxchem/data/lb32627/lb32627-65/processing/analysis/mode
REMARK            -m \                                                          
REMARK            /dls/labxchem/data/lb32627/lb32627-65/processing/analysis/mode
REMARK            -l \                                                          
REMARK            /dls/labxchem/data/lb32627/lb32627-65/processing/analysis/mode
REMARK            -autoncs -M TLSbasic -WAT -B user -Gelly gelly.dat \          
REMARK            StopOnGellySanityCheckError=no -d Refine_4                    
REMARK Files used:                                                              
REMARK   PDB              = Refine_4/pdbchk.pdb                                 
REMARK   MTZ              = /dls/labxchem/data/lb32627/lb32627-65/processing/ana
REMARK   Gelly commands       = /dls/labxchem/data/lb32627/lb32627-65/processing
REMARK output written to subdirectory = Refine_4                                
REMARK best refinement for F,SIGF with R/Rfree 0.2138/0.2403                    
REMARK header records are copied from input PDB file (apart from REMARK 3!)     
REMARK --------------------- added by autoBUSTER -------------------------------
REMARK --------------------- added by autoBUSTER -------------------------------
REMARK run at   = Tue May 23 17:07:07 BST 2023                                  
REMARK     in   = /dls/labxchem/data/lb32627/lb32627-65/processing/analysis/mode
REMARK     user = xau79897                                                      
REMARK     cmd  = \                                                             
REMARK            /dls_sw/apps/GPhL/BUSTER/20230217/autoBUSTER/bin/linux64/refin
REMARK            -p \                                                          
REMARK            /dls/labxchem/data/lb32627/lb32627-65/processing/analysis/mode
REMARK            -m \                                                          
REMARK            /dls/labxchem/data/lb32627/lb32627-65/processing/analysis/mode
REMARK            -l \                                                          
REMARK            /dls/labxchem/data/lb32627/lb32627-65/processing/analysis/mode
REMARK            -autoncs -M TLSbasic -d Refine_3                              
REMARK Files used:                                                              
REMARK   PDB              = Refine_3/pdbchk.pdb                                 
REMARK   MTZ              = /dls/labxchem/data/lb32627/lb32627-65/processing/ana
REMARK output written to subdirectory = Refine_3                                
REMARK best refinement for F,SIGF with R/Rfree 0.2267/0.2458                    
REMARK header records are copied from input PDB file (apart from REMARK 3!)     
REMARK --------------------- added by autoBUSTER -------------------------------
REMARK   2                                                            
REMARK   2 RESOLUTION.    1.36 ANGSTROMS.
REMARK   3
REMARK   3 REFINEMENT.
REMARK   3   PROGRAM     : BUSTER 2.10.4 (26-JUL-2023)
REMARK   3   AUTHORS     : BRICOGNE,BLANC,BRANDL,FLENSBURG,KELLER,
REMARK   3               : PACIOREK,ROVERSI,SHARFF,SMART,VONRHEIN,WOMACK;
REMARK   3               : MATTHEWS,TEN EYCK,TRONRUD
REMARK   3
REMARK   3  DATA USED IN REFINEMENT.
REMARK   3   RESOLUTION RANGE HIGH (ANGSTROMS) : 1.360
REMARK   3   RESOLUTION RANGE LOW  (ANGSTROMS) : 15.61
REMARK   3   DATA CUTOFF            (SIGMA(F)) : 0.000
REMARK   3   COMPLETENESS FOR RANGE        (%) : 93.0
REMARK   3   NUMBER OF REFLECTIONS             : 41511
REMARK   3
REMARK   3  FIT TO DATA USED IN REFINEMENT.
REMARK   3   CROSS-VALIDATION METHOD          : THROUGHOUT
REMARK   3   FREE R VALUE TEST SET SELECTION  : RANDOM
REMARK   3   R VALUE     (WORKING + TEST SET) : 0.2152
REMARK   3   R VALUE            (WORKING SET) : 0.2137
REMARK   3   FREE R VALUE                     : 0.2430
REMARK   3   FREE R VALUE TEST SET SIZE   (%) : 5.060
REMARK   3   FREE R VALUE TEST SET COUNT      : 2099
REMARK   3   ESTIMATED ERROR OF FREE R VALUE  : NULL
REMARK   3
REMARK   3  FIT IN THE HIGHEST RESOLUTION BIN.
REMARK   3   TOTAL NUMBER OF BINS USED           : 51
REMARK   3   BIN RESOLUTION RANGE HIGH       (A) : 1.36
REMARK   3   BIN RESOLUTION RANGE LOW        (A) : 1.40
REMARK   3   BIN COMPLETENESS (WORKING+TEST) (%) : 23.84
REMARK   3   REFLECTIONS IN BIN   (WORKING+TEST) : 831
REMARK   3   BIN R VALUE          (WORKING+TEST) : 0.5135
REMARK   3   REFLECTIONS IN BIN    (WORKING SET) : 800
REMARK   3   BIN R VALUE           (WORKING SET) : 0.5120
REMARK   3   BIN FREE R VALUE                    : 0.5514
REMARK   3   BIN FREE R VALUE TEST SET SIZE  (%) : 3.73
REMARK   3   BIN FREE R VALUE TEST SET COUNT     : 31
REMARK   3   ESTIMATED ERROR OF BIN FREE R VALUE : NULL
REMARK   3
REMARK   3  NUMBER OF NON-HYDROGEN ATOMS USED IN REFINEMENT.
REMARK   3   PROTEIN ATOMS            : 1476
REMARK   3   NUCLEIC ACID ATOMS       : 0
REMARK   3   HETEROGEN ATOMS          : 17
REMARK   3   SOLVENT ATOMS            : 158
REMARK   3
REMARK   3  B VALUES.
REMARK   3   FROM WILSON PLOT           (A**2) : 27.06
REMARK   3   MEAN B VALUE      (OVERALL, A**2) : 37.73
REMARK   3   OVERALL ANISOTROPIC B VALUE.
REMARK   3    B11 (A**2) : -4.01020
REMARK   3    B22 (A**2) : -4.01020
REMARK   3    B33 (A**2) : 8.02040
REMARK   3    B12 (A**2) : 0.00000
REMARK   3    B13 (A**2) : 0.00000
REMARK   3    B23 (A**2) : 0.00000
REMARK   3
REMARK   3  ESTIMATED COORDINATE ERROR.
REMARK   3   ESD FROM LUZZATI PLOT                    (A) : 0.25
REMARK   3   DPI (BLOW EQ-10) BASED ON R VALUE        (A) : 0.070
REMARK   3   DPI (BLOW EQ-9) BASED ON FREE R VALUE    (A) : 0.072
REMARK   3   DPI (CRUICKSHANK) BASED ON R VALUE       (A) : 0.066
REMARK   3   DPI (CRUICKSHANK) BASED ON FREE R VALUE  (A) : 0.068
REMARK   3
REMARK   3   REFERENCES: BLOW, D. (2002) ACTA CRYST D58, 792-797
REMARK   3               CRUICKSHANK, D.W.J. (1999) ACTA CRYST D55, 583-601
REMARK   3
REMARK   3  CORRELATION COEFFICIENTS.
REMARK   3   CORRELATION COEFFICIENT FO-FC      : 0.958
REMARK   3   CORRELATION COEFFICIENT FO-FC FREE : 0.948
REMARK   3
REMARK   3  X-RAY WEIGHT : 6.04
REMARK   3
REMARK   3  GEOMETRY FUNCTION.                                                  
REMARK   3   RESTRAINT LIBRARIES.                                               
REMARK   3    NUMBER OF LIBRARIES USED :   9                                    
REMARK   3    LIBRARY  1 : protgeo_eh99.dat (V1.6.4.20) 20220523  STANDARD      
REMARK   3                 AMINO ACID DICTIONARY. BONDS AND ANGLES FROM         
REMARK   3                 ENGH AND HUBER EH99. OTHER VALUES BASED ON           
REMARK   3                 PREVIOUS TNT OR TAKEN FROM CCP4. INCLUDES            
REMARK   3                 HYDROGEN ATOMS.                                      
REMARK   3    LIBRARY  2 : exoticaa.dat (V1.3.4.16) 20220523  COLLECTION        
REMARK   3                 OF NON-STANDARD AMINO ACIDS, MAINLY EH91             
REMARK   3                 WITHOUT IDEAL DISTANCE INFO                          
REMARK   3    LIBRARY  3 : nuclgeo.dat (V1.13.4.9) 20221011                     
REMARK   3    LIBRARY  4 : bcorrel.dat (V1.15.10.2) 20190616                    
REMARK   3    LIBRARY  5 : contact.dat (V1.15.12.10) 20191121                   
REMARK   3    LIBRARY  6 : idealdist_contact.dat (V1.3.4.14) 20230724           
REMARK   3                 IDEAL-DISTANCE CONTACT TERM DATA AS USED IN          
REMARK   3                 PROLSQ. VALUES USED HERE ARE BASEd ON DATA           
REMARK   3                 HARVESTING OF PDB AS OF 20190109                     
REMARK   3    LIBRARY  7 : restraints for LIG (unknown) from cif                
REMARK   3                 dictionary Z31113727.cif; generated by GRADE         
REMARK   3                 1.2.21 (Feb 03 2022) from SMILES                     
REMARK   3                 O=C1CCN(CC1)C=2C=CC=CN2 using MOGUL                  
REMARK   3                 1.8.5(274361), CSD as541be, with quantum             
REMARK   3                 mechanics RM1                                        
REMARK   3    LIBRARY  8 : restraints for DMS (DIMETHYL SULFOXIDE) from         
REMARK   3                 cif dictionary DMS.cif; generated by grade2          
REMARK   3                 version 1.1.0a7 from                                 
REMARK   3                 PDB_chemical_components_definition_file              
REMARK   3                 ftp://ftp.ebi.ac.uk/pub/databases/msd/pdbechem_v     
REMARK   3                 2/D/DMS/DMS.cif using RDKit 2021.03.4                
REMARK   3                 ((DatabaseID PDB-DMS))                               
REMARK   3    LIBRARY  9 : assume.dat (V1.9.4.3) 20221011                       
REMARK   3                                                                      
REMARK   3   NUMBER OF GEOMETRIC FUNCTION TERMS DEFINED : 15                    
REMARK   3   TERM                          COUNT    WEIGHT   FUNCTION.          
REMARK   3    BOND LENGTHS              :   1572 ;   2.00 ;  HARMONIC           
REMARK   3    BOND ANGLES               :   2137 ;   2.00 ;  HARMONIC           
REMARK   3    TORSION ANGLES            :    533 ;   2.00 ;  SINUSOIDAL         
REMARK   3    TRIGONAL CARBON PLANES    :   NULL ;   NULL ;  NULL               
REMARK   3    GENERAL PLANES            :    274 ;   5.00 ;  HARMONIC           
REMARK   3    ISOTROPIC THERMAL FACTORS :   1572 ;  10.00 ;  HARMONIC           
REMARK   3    BAD NON-BONDED CONTACTS   :   NULL ;   NULL ;  NULL               
REMARK   3    IMPROPER TORSIONS         :   NULL ;   NULL ;  NULL               
REMARK   3    PSEUDOROTATION ANGLES     :   NULL ;   NULL ;  NULL               
REMARK   3    CHIRAL IMPROPER TORSION   :    192 ;   5.00 ;  SEMIHARMONIC       
REMARK   3    SUM OF OCCUPANCIES        :   NULL ;   NULL ;  NULL               
REMARK   3    UTILITY DISTANCES         :   NULL ;   NULL ;  NULL               
REMARK   3    UTILITY ANGLES            :   NULL ;   NULL ;  NULL               
REMARK   3    UTILITY TORSION           :   NULL ;   NULL ;  NULL               
REMARK   3    IDEAL-DIST CONTACT TERM   :   1355 ;   4.00 ;  SEMIHARMONIC       
REMARK   3                                                                      
REMARK   3   RMS DEVIATIONS FROM IDEAL VALUES.                                  
REMARK   3   BOND LENGTHS                       (A) : 0.012                     
REMARK   3   BOND ANGLES                  (DEGREES) : 1.11                      
REMARK   3   PEPTIDE OMEGA TORSION ANGLES (DEGREES) : 4.41                      
REMARK   3   OTHER TORSION ANGLES         (DEGREES) : 15.67                     
REMARK   3                                                                      
REMARK   3   SIMILARITY.                                                        
REMARK   3    NCS.                                                              
REMARK   3     NCS METHOD: NONE                                                 
REMARK   3    TARGET RESTRAINTS.                                                
REMARK   3     TARGET REPRESENTATION : NONE                                     
REMARK   3     TARGET STRUCTURE : NULL                                          
REMARK   3                                                                      
REMARK   3  TLS DETAILS.                                                        
REMARK   3   NUMBER OF TLS GROUPS  :            2                               
REMARK   3                                                                      
REMARK   3   TLS GROUP :            1                                           
REMARK   3    SET : { A|* }                                                     
REMARK   3    ORIGIN FOR THE GROUP (A):  -13.7530   -1.2827  -19.3239           
REMARK   3    T TENSOR                                                          
REMARK   3     T11:    0.0092 T22:    0.0155                                    
REMARK   3     T33:   -0.0973 T12:    0.1080                                    
REMARK   3     T13:    0.0501 T23:    0.0436                                    
REMARK   3    L TENSOR                                                          
REMARK   3     L11:    2.1862 L22:    1.9449                                    
REMARK   3     L33:    1.5054 L12:   -1.2102                                    
REMARK   3     L13:    0.7275 L23:    0.2438                                    
REMARK   3    S TENSOR                                                          
REMARK   3     S11:    0.3252 S12:    0.2841 S13:    0.1605                     
REMARK   3     S21:   -0.3138 S22:   -0.2477 S23:   -0.1488                     
REMARK   3     S31:    0.0367 S32:    0.2973 S33:   -0.0775                     
REMARK   3                                                                      
REMARK   3   TLS GROUP :            2                                           
REMARK   3    SET : { B|* }                                                     
REMARK   3    ORIGIN FOR THE GROUP (A):  -18.6863    1.3928  -15.4459           
REMARK   3    T TENSOR                                                          
REMARK   3     T11:    0.0222 T22:    0.0049                                    
REMARK   3     T33:   -0.0228 T12:    0.0739                                    
REMARK   3     T13:    0.0148 T23:    0.0103                                    
REMARK   3    L TENSOR                                                          
REMARK   3     L11:    1.1049 L22:    0.9077                                    
REMARK   3     L33:    1.1835 L12:   -0.8082                                    
REMARK   3     L13:    0.5181 L23:   -0.1674                                    
REMARK   3    S TENSOR                                                          
REMARK   3     S11:    0.2070 S12:    0.0938 S13:    0.0489                     
REMARK   3     S21:   -0.1008 S22:   -0.1847 S23:    0.0382                     
REMARK   3     S31:    0.0509 S32:    0.1216 S33:   -0.0223                     
REMARK   3                                                                      
REMARK   3  REFINEMENT NOTES.                                                   
REMARK   3   NUMBER OF REFINEMENT NOTES :   1                                   
REMARK   3   NOTE   1 : IDEAL-DIST CONTACT TERM CONTACT SETUP. ALL ATOMS        
REMARK   3               HAVE CCP4 ATOM TYPE FROM LIBRARY                       
REMARK   3
REMARK   3  OTHER REFINEMENT REMARKS: NULL
REMARK   3
REMARK 290                                                            
REMARK 290 CRYSTALLOGRAPHIC SYMMETRY                                  
REMARK 290 SYMMETRY OPERATORS FOR SPACE GROUP: P 43 2 2               
REMARK 290                                                            
REMARK 290      SYMOP   SYMMETRY                                      
REMARK 290     NNNMMM   OPERATOR                                      
REMARK 290       1555   X,Y,Z                                         
REMARK 290       2555   -X,-Y,1/2+Z                                   
REMARK 290       3555   -Y,X,3/4+Z                                    
REMARK 290       4555   Y,-X,1/4+Z                                    
REMARK 290       5555   -X,Y,-Z                                       
REMARK 290       6555   X,-Y,1/2-Z                                    
REMARK 290       7555   Y,X,1/4-Z                                     
REMARK 290       8555   -Y,-X,3/4-Z                                   
REMARK 290                                                            
REMARK 290     WHERE NNN -> OPERATOR NUMBER                           
REMARK 290           MMM -> TRANSLATION VECTOR                        
REMARK 290                                                            
REMARK 290 CRYSTALLOGRAPHIC SYMMETRY TRANSFORMATIONS                  
REMARK 290 THE FOLLOWING TRANSFORMATIONS OPERATE ON THE ATOM/HETATM   
REMARK 290 RECORDS IN THIS ENTRY TO PRODUCE CRYSTALLOGRAPHICALLY      
REMARK 290 RELATED MOLECULES.                                         
REMARK 290   SMTRY1   1  1.000000  0.000000  0.000000        0.00000
REMARK 290   SMTRY2   1  0.000000  1.000000  0.000000        0.00000
REMARK 290   SMTRY3   1  0.000000  0.000000  1.000000        0.00000
REMARK 290   SMTRY1   2 -1.000000  0.000000  0.000000        0.00000
REMARK 290   SMTRY2   2  0.000000 -1.000000  0.000000        0.00000
REMARK 290   SMTRY3   2  0.000000  0.000000  1.000000      108.51050
REMARK 290   SMTRY1   3  0.000000 -1.000000  0.000000        0.00000
REMARK 290   SMTRY2   3  1.000000  0.000000  0.000000        0.00000
REMARK 290   SMTRY3   3  0.000000  0.000000  1.000000      162.76575
REMARK 290   SMTRY1   4  0.000000  1.000000  0.000000        0.00000
REMARK 290   SMTRY2   4 -1.000000  0.000000  0.000000        0.00000
REMARK 290   SMTRY3   4  0.000000  0.000000  1.000000       54.25525
REMARK 290   SMTRY1   5 -1.000000  0.000000  0.000000        0.00000
REMARK 290   SMTRY2   5  0.000000  1.000000  0.000000        0.00000
REMARK 290   SMTRY3   5  0.000000  0.000000 -1.000000        0.00000
REMARK 290   SMTRY1   6  1.000000  0.000000  0.000000        0.00000
REMARK 290   SMTRY2   6  0.000000 -1.000000  0.000000        0.00000
REMARK 290   SMTRY3   6  0.000000  0.000000 -1.000000      108.51050
REMARK 290   SMTRY1   7  0.000000  1.000000  0.000000        0.00000
REMARK 290   SMTRY2   7  1.000000  0.000000  0.000000        0.00000
REMARK 290   SMTRY3   7  0.000000  0.000000 -1.000000       54.25525
REMARK 290   SMTRY1   8  0.000000 -1.000000  0.000000        0.00000
REMARK 290   SMTRY2   8 -1.000000  0.000000  0.000000        0.00000
REMARK 290   SMTRY3   8  0.000000  0.000000 -1.000000      162.76575
REMARK 290                                                            
REMARK 290 REMARK: NULL                                               
CRYST1   42.694   42.694  217.021  90.00  90.00  90.00 P 43 2 2                 


$$$$
Zx0465a_ligand
  PyMOL3.0          3D                             0

 13 14  0  0  0  0  0  0  0  0999 V2000
  -10.1470    5.0750  -17.9090 C   0  0  0  0  0  0  0  0  0  0  0  0
   -7.2840    4.8260  -17.9000 N   0  0  0  0  0  0  0  0  0  0  0  0
  -11.3510    4.9570  -17.9460 O   0  0  0  0  0  0  0  0  0  0  0  0
   -9.3870    5.1050  -16.6100 C   0  0  0  0  0  0  0  0  0  0  0  0
   -5.2930    4.8770  -19.1190 N   0  0  0  0  0  0  0  0  0  0  0  0
   -8.0410    4.3930  -16.7150 C   0  0  0  0  0  0  0  0  0  0  0  0
   -8.0380    4.5290  -19.1220 C   0  0  0  0  0  0  0  0  0  0  0  0
   -9.3410    5.3060  -19.1530 C   0  0  0  0  0  0  0  0  0  0  0  0
   -5.8910    4.8220  -17.9050 C   0  0  0  0  0  0  0  0  0  0  0  0
   -3.9480    4.8510  -19.1480 C   0  0  0  0  0  0  0  0  0  0  0  0
   -3.1520    4.7740  -18.0160 C   0  0  0  0  0  0  0  0  0  0  0  0
   -3.7740    4.7190  -16.7820 C   0  0  0  0  0  0  0  0  0  0  0  0
   -5.1610    4.7460  -16.6970 C   0  0  0  0  0  0  0  0  0  0  0  0
  1  4  1  0  0  0  0
  1  8  1  0  0  0  0
  2  7  1  0  0  0  0
  2  9  1  0  0  0  0
  1  3  2  0  0  0  0
  4  6  1  0  0  0  0
  5 10  4  0  0  0  0
  2  6  1  0  0  0  0
  7  8  1  0  0  0  0
  5  9  4  0  0  0  0
  9 13  4  0  0  0  0
 10 11  4  0  0  0  0
 11 12  4  0  0  0  0
 12 13  4  0  0  0  0
M  END
>  <pdb_header>
COMPND    XX01ZVNS2B-x0465_B_301_XX01ZVNS2B-x1291+B+301+1


$$$$
Zx0472a
  PyMOL3.0          3D                             0

 13 14  0  0  0  0  0  0  0  0999 V2000
   -3.2120    4.0840  -15.5220 N   0  0  0  0  0  0  0  0  0  0  0  0
   -3.3790    6.0850  -18.7430 C   0  0  0  0  0  0  0  0  0  0  0  0
   -3.8810    5.1320  -17.6720 C   0  0  0  0  0  0  0  0  0  0  0  0
   -5.2960    5.3240  -17.2730 N   0  0  0  0  0  0  0  0  0  0  0  0
   -2.9140    5.1510  -16.4760 C   0  0  0  0  0  0  0  0  0  0  0  0
   -5.7230    6.1440  -16.1290 C   0  0  0  0  0  0  0  0  0  0  0  0
   -6.9190    5.5180  -15.4210 C   0  0  0  0  0  0  0  0  0  0  0  0
   -7.9050    5.0710  -16.4610 C   0  0  0  0  0  0  0  0  0  0  0  0
   -9.8500    4.3240  -17.7760 C   0  0  0  0  0  0  0  0  0  0  0  0
   -8.7910    4.6320  -18.5560 C   0  0  0  0  0  0  0  0  0  0  0  0
   -7.6620    5.0540  -17.7980 C   0  0  0  0  0  0  0  0  0  0  0  0
   -6.3010    5.3850  -18.3570 C   0  0  0  0  0  0  0  0  0  0  0  0
   -9.5040    4.5400  -16.1140 S   0  0  0  0  0  0  0  0  0  0  0  0
  1  5  1  0  0  0  0
  2  3  1  0  0  0  0
  3  4  1  0  0  0  0
  4  6  1  0  0  0  0
  4 12  1  0  0  0  0
  3  5  1  0  0  0  0
  6  7  1  0  0  0  0
  7  8  1  0  0  0  0
  9 13  4  0  0  0  0
  9 10  4  0  0  0  0
  8 11  4  0  0  0  0
 10 11  4  0  0  0  0
 11 12  1  0  0  0  0
  8 13  4  0  0  0  0
M  END
>  <pdb_header>
HEADER    ----                                    18-MAY-23                     
TITLE     ---                                                                   
EXPDTA    X-RAY DIFFRACTION                                                     
REMARK --------------------- added by autoBUSTER ---------------------------------START
REMARK run at   = Fri Sep 29 18:05:00 BST 2023
REMARK     in   = /dls/labxchem/data/lb32627/lb32627-65/processing/analysis/model_building/XX01ZVNS2B-x0472
REMARK     user = kyf22269
REMARK     cmd  = \
REMARK            /dls_sw/apps/GPhL/BUSTER/20230726/autoBUSTER/bin/linux64/refine \
REMARK            -p \
REMARK            /dls/labxchem/data/lb32627/lb32627-65/processing/analysis/model_building/XX01ZVNS2B-x0472/cootOut/Refi
REMARK            -m \
REMARK            /dls/labxchem/data/lb32627/lb32627-65/processing/analysis/model_building/XX01ZVNS2B-x0472/XX01ZVNS2B-x
REMARK            -l \
REMARK            /dls/labxchem/data/lb32627/lb32627-65/processing/analysis/model_building/XX01ZVNS2B-x0472/Z270834034.c
REMARK            -autoncs -M TLSbasic -d Refine_9
REMARK Files used:
REMARK   PDB              = Refine_9/pdbchk.pdb
REMARK   MTZ              = /dls/labxchem/data/lb32627/lb32627-65/processing/analysis/model_building/XX01ZVNS2B-x0472/XX
REMARK output written to subdirectory = Refine_9
REMARK best refinement for F,SIGF with R/Rfree 0.2174/0.2408
REMARK header records are copied from input PDB file (apart from REMARK 3!)
REMARK --------------------- added by autoBUSTER -----------------------------------END
REMARK --------------------- added by autoBUSTER -------------------------------
REMARK run at   = Wed Jun 14 20:42:28 BST 2023                                  
REMARK     in   = /dls/labxchem/data/lb32627/lb32627-65/processing/analysis/mode
REMARK     user = xau79897                                                      
REMARK     cmd  = \                                                             
REMARK            /dls_sw/apps/GPhL/BUSTER/20230614/autoBUSTER/bin/linux64/refin
REMARK            -p \                                                          
REMARK            /dls/labxchem/data/lb32627/lb32627-65/processing/analysis/mode
REMARK            -m \                                                          
REMARK            /dls/labxchem/data/lb32627/lb32627-65/processing/analysis/mode
REMARK            -l \                                                          
REMARK            /dls/labxchem/data/lb32627/lb32627-65/processing/analysis/mode
REMARK            -autoncs -M TLSbasic -B user -Gelly gelly.dat \               
REMARK            StopOnGellySanityCheckError=no -d Refine_8                    
REMARK Files used:                                                              
REMARK   PDB              = Refine_8/pdbchk.pdb                                 
REMARK   MTZ              = /dls/labxchem/data/lb32627/lb32627-65/processing/ana
REMARK   Gelly commands       = /dls/labxchem/data/lb32627/lb32627-65/processing
REMARK output written to subdirectory = Refine_8                                
REMARK best refinement for F,SIGF with R/Rfree 0.2174/0.2408                    
REMARK header records are copied from input PDB file (apart from REMARK 3!)     
REMARK --------------------- added by autoBUSTER -------------------------------
REMARK --------------------- added by autoBUSTER -------------------------------
REMARK run at   = Tue May 30 17:11:09 BST 2023                                  
REMARK     in   = /dls/labxchem/data/lb32627/lb32627-65/processing/analysis/mode
REMARK     user = xau79897                                                      
REMARK     cmd  = \                                                             
REMARK            /dls_sw/apps/GPhL/BUSTER/20230217/autoBUSTER/bin/linux64/refin
REMARK            -p \                                                          
REMARK            /dls/labxchem/data/lb32627/lb32627-65/processing/analysis/mode
REMARK            -m \                                                          
REMARK            /dls/labxchem/data/lb32627/lb32627-65/processing/analysis/mode
REMARK            -l \                                                          
REMARK            /dls/labxchem/data/lb32627/lb32627-65/processing/analysis/mode
REMARK            -autoncs -M TLSbasic -B user -Gelly gelly.dat \               
REMARK            StopOnGellySanityCheckError=no -d Refine_7                    
REMARK Files used:                                                              
REMARK   PDB              = Refine_7/pdbchk.pdb                                 
REMARK   MTZ              = /dls/labxchem/data/lb32627/lb32627-65/processing/ana
REMARK   Gelly commands       = /dls/labxchem/data/lb32627/lb32627-65/processing
REMARK output written to subdirectory = Refine_7                                
REMARK best refinement for F,SIGF with R/Rfree 0.2174/0.2396                    
REMARK header records are copied from input PDB file (apart from REMARK 3!)     
REMARK --------------------- added by autoBUSTER -------------------------------
REMARK --------------------- added by autoBUSTER -------------------------------
REMARK run at   = Mon May 29 19:40:43 BST 2023                                  
REMARK     in   = /dls/labxchem/data/lb32627/lb32627-65/processing/analysis/mode
REMARK     user = xau79897                                                      
REMARK     cmd  = \                                                             
REMARK            /dls_sw/apps/GPhL/BUSTER/20230217/autoBUSTER/bin/linux64/refin
REMARK            -p \                                                          
REMARK            /dls/labxchem/data/lb32627/lb32627-65/processing/analysis/mode
REMARK            -m \                                                          
REMARK            /dls/labxchem/data/lb32627/lb32627-65/processing/analysis/mode
REMARK            -l \                                                          
REMARK            /dls/labxchem/data/lb32627/lb32627-65/processing/analysis/mode
REMARK            -autoncs -M TLSbasic -B user -Gelly gelly.dat \               
REMARK            StopOnGellySanityCheckError=no -d Refine_6                    
REMARK Files used:                                                              
REMARK   PDB              = Refine_6/pdbchk.pdb                                 
REMARK   MTZ              = /dls/labxchem/data/lb32627/lb32627-65/processing/ana
REMARK   Gelly commands       = /dls/labxchem/data/lb32627/lb32627-65/processing
REMARK output written to subdirectory = Refine_6                                
REMARK best refinement for F,SIGF with R/Rfree 0.2171/0.2388                    
REMARK header records are copied from input PDB file (apart from REMARK 3!)     
REMARK --------------------- added by autoBUSTER -------------------------------
REMARK --------------------- added by autoBUSTER -------------------------------
REMARK run at   = Wed May 24 13:54:05 BST 2023                                  
REMARK     in   = /dls/labxchem/data/lb32627/lb32627-65/processing/analysis/mode
REMARK     user = xau79897                                                      
REMARK     cmd  = \                                                             
REMARK            /dls_sw/apps/GPhL/BUSTER/20230217/autoBUSTER/bin/linux64/refin
REMARK            -p \                                                          
REMARK            /dls/labxchem/data/lb32627/lb32627-65/processing/analysis/mode
REMARK            -m \                                                          
REMARK            /dls/labxchem/data/lb32627/lb32627-65/processing/analysis/mode
REMARK            -l \                                                          
REMARK            /dls/labxchem/data/lb32627/lb32627-65/processing/analysis/mode
REMARK            -autoncs -M TLSbasic -WAT -B user -Gelly gelly.dat \          
REMARK            StopOnGellySanityCheckError=no -d Refine_5                    
REMARK Files used:                                                              
REMARK   PDB              = Refine_5/pdbchk.pdb                                 
REMARK   MTZ              = /dls/labxchem/data/lb32627/lb32627-65/processing/ana
REMARK   Gelly commands       = /dls/labxchem/data/lb32627/lb32627-65/processing
REMARK output written to subdirectory = Refine_5                                
REMARK best refinement for F,SIGF with R/Rfree 0.2172/0.2381                    
REMARK header records are copied from input PDB file (apart from REMARK 3!)     
REMARK --------------------- added by autoBUSTER -------------------------------
REMARK --------------------- added by autoBUSTER -------------------------------
REMARK run at   = Tue May 23 17:23:50 BST 2023                                  
REMARK     in   = /dls/labxchem/data/lb32627/lb32627-65/processing/analysis/mode
REMARK     user = xau79897                                                      
REMARK     cmd  = \                                                             
REMARK            /dls_sw/apps/GPhL/BUSTER/20230217/autoBUSTER/bin/linux64/refin
REMARK            -p \                                                          
REMARK            /dls/labxchem/data/lb32627/lb32627-65/processing/analysis/mode
REMARK            -m \                                                          
REMARK            /dls/labxchem/data/lb32627/lb32627-65/processing/analysis/mode
REMARK            -l \                                                          
REMARK            /dls/labxchem/data/lb32627/lb32627-65/processing/analysis/mode
REMARK            -autoncs -M TLSbasic -d Refine_4                              
REMARK Files used:                                                              
REMARK   PDB              = Refine_4/pdbchk.pdb                                 
REMARK   MTZ              = /dls/labxchem/data/lb32627/lb32627-65/processing/ana
REMARK output written to subdirectory = Refine_4                                
REMARK best refinement for F,SIGF with R/Rfree 0.2289/0.2409                    
REMARK header records are copied from input PDB file (apart from REMARK 3!)     
REMARK --------------------- added by autoBUSTER -------------------------------
REMARK --------------------- added by autoBUSTER -------------------------------
REMARK run at   = Tue May 23 17:07:06 BST 2023                                  
REMARK     in   = /dls/labxchem/data/lb32627/lb32627-65/processing/analysis/mode
REMARK     user = xau79897                                                      
REMARK     cmd  = \                                                             
REMARK            /dls_sw/apps/GPhL/BUSTER/20230217/autoBUSTER/bin/linux64/refin
REMARK            -p \                                                          
REMARK            /dls/labxchem/data/lb32627/lb32627-65/processing/analysis/mode
REMARK            -m \                                                          
REMARK            /dls/labxchem/data/lb32627/lb32627-65/processing/analysis/mode
REMARK            -l \                                                          
REMARK            /dls/labxchem/data/lb32627/lb32627-65/processing/analysis/mode
REMARK            -autoncs -M TLSbasic -d Refine_3                              
REMARK Files used:                                                              
REMARK   PDB              = Refine_3/pdbchk.pdb                                 
REMARK   MTZ              = /dls/labxchem/data/lb32627/lb32627-65/processing/ana
REMARK output written to subdirectory = Refine_3                                
REMARK best refinement for F,SIGF with R/Rfree 0.2285/0.2421                    
REMARK header records are copied from input PDB file (apart from REMARK 3!)     
REMARK --------------------- added by autoBUSTER -------------------------------
REMARK   2                                                            
REMARK   2 RESOLUTION.    1.40 ANGSTROMS.
REMARK   3
REMARK   3 REFINEMENT.
REMARK   3   PROGRAM     : BUSTER 2.10.4 (26-JUL-2023)
REMARK   3   AUTHORS     : BRICOGNE,BLANC,BRANDL,FLENSBURG,KELLER,
REMARK   3               : PACIOREK,ROVERSI,SHARFF,SMART,VONRHEIN,WOMACK;
REMARK   3               : MATTHEWS,TEN EYCK,TRONRUD
REMARK   3
REMARK   3  DATA USED IN REFINEMENT.
REMARK   3   RESOLUTION RANGE HIGH (ANGSTROMS) : 1.396
REMARK   3   RESOLUTION RANGE LOW  (ANGSTROMS) : 19.82
REMARK   3   DATA CUTOFF            (SIGMA(F)) : 0.000
REMARK   3   COMPLETENESS FOR RANGE        (%) : 93.0
REMARK   3   NUMBER OF REFLECTIONS             : 38262
REMARK   3
REMARK   3  FIT TO DATA USED IN REFINEMENT.
REMARK   3   CROSS-VALIDATION METHOD          : THROUGHOUT
REMARK   3   FREE R VALUE TEST SET SELECTION  : RANDOM
REMARK   3   R VALUE     (WORKING + TEST SET) : 0.2186
REMARK   3   R VALUE            (WORKING SET) : 0.2174
REMARK   3   FREE R VALUE                     : 0.2408
REMARK   3   FREE R VALUE TEST SET SIZE   (%) : 5.080
REMARK   3   FREE R VALUE TEST SET COUNT      : 1943
REMARK   3   ESTIMATED ERROR OF FREE R VALUE  : NULL
REMARK   3
REMARK   3  FIT IN THE HIGHEST RESOLUTION BIN.
REMARK   3   TOTAL NUMBER OF BINS USED           : 51
REMARK   3   BIN RESOLUTION RANGE HIGH       (A) : 1.40
REMARK   3   BIN RESOLUTION RANGE LOW        (A) : 1.43
REMARK   3   BIN COMPLETENESS (WORKING+TEST) (%) : 23.74
REMARK   3   REFLECTIONS IN BIN   (WORKING+TEST) : 766
REMARK   3   BIN R VALUE          (WORKING+TEST) : 0.5360
REMARK   3   REFLECTIONS IN BIN    (WORKING SET) : 714
REMARK   3   BIN R VALUE           (WORKING SET) : 0.5352
REMARK   3   BIN FREE R VALUE                    : 0.5469
REMARK   3   BIN FREE R VALUE TEST SET SIZE  (%) : 6.79
REMARK   3   BIN FREE R VALUE TEST SET COUNT     : 52
REMARK   3   ESTIMATED ERROR OF BIN FREE R VALUE : NULL
REMARK   3
REMARK   3  NUMBER OF NON-HYDROGEN ATOMS USED IN REFINEMENT.
REMARK   3   PROTEIN ATOMS            : 1476
REMARK   3   NUCLEIC ACID ATOMS       : 0
REMARK   3   HETEROGEN ATOMS          : 21
REMARK   3   SOLVENT ATOMS            : 146
REMARK   3
REMARK   3  B VALUES.
REMARK   3   FROM WILSON PLOT           (A**2) : 29.73
REMARK   3   MEAN B VALUE      (OVERALL, A**2) : 42.66
REMARK   3   OVERALL ANISOTROPIC B VALUE.
REMARK   3    B11 (A**2) : -4.40520
REMARK   3    B22 (A**2) : -4.40520
REMARK   3    B33 (A**2) : 8.81040
REMARK   3    B12 (A**2) : 0.00000
REMARK   3    B13 (A**2) : 0.00000
REMARK   3    B23 (A**2) : 0.00000
REMARK   3
REMARK   3  ESTIMATED COORDINATE ERROR.
REMARK   3   ESD FROM LUZZATI PLOT                    (A) : 0.26
REMARK   3   DPI (BLOW EQ-10) BASED ON R VALUE        (A) : 0.077
REMARK   3   DPI (BLOW EQ-9) BASED ON FREE R VALUE    (A) : 0.076
REMARK   3   DPI (CRUICKSHANK) BASED ON R VALUE       (A) : 0.072
REMARK   3   DPI (CRUICKSHANK) BASED ON FREE R VALUE  (A) : 0.073
REMARK   3
REMARK   3   REFERENCES: BLOW, D. (2002) ACTA CRYST D58, 792-797
REMARK   3               CRUICKSHANK, D.W.J. (1999) ACTA CRYST D55, 583-601
REMARK   3
REMARK   3  CORRELATION COEFFICIENTS.
REMARK   3   CORRELATION COEFFICIENT FO-FC      : 0.955
REMARK   3   CORRELATION COEFFICIENT FO-FC FREE : 0.953
REMARK   3
REMARK   3  X-RAY WEIGHT : 5.68
REMARK   3
REMARK   3  GEOMETRY FUNCTION.                                                  
REMARK   3   RESTRAINT LIBRARIES.                                               
REMARK   3    NUMBER OF LIBRARIES USED :   9                                    
REMARK   3    LIBRARY  1 : protgeo_eh99.dat (V1.6.4.20) 20220523  STANDARD      
REMARK   3                 AMINO ACID DICTIONARY. BONDS AND ANGLES FROM         
REMARK   3                 ENGH AND HUBER EH99. OTHER VALUES BASED ON           
REMARK   3                 PREVIOUS TNT OR TAKEN FROM CCP4. INCLUDES            
REMARK   3                 HYDROGEN ATOMS.                                      
REMARK   3    LIBRARY  2 : exoticaa.dat (V1.3.4.16) 20220523  COLLECTION        
REMARK   3                 OF NON-STANDARD AMINO ACIDS, MAINLY EH91             
REMARK   3                 WITHOUT IDEAL DISTANCE INFO                          
REMARK   3    LIBRARY  3 : nuclgeo.dat (V1.13.4.9) 20221011                     
REMARK   3    LIBRARY  4 : bcorrel.dat (V1.15.10.2) 20190616                    
REMARK   3    LIBRARY  5 : contact.dat (V1.15.12.10) 20191121                   
REMARK   3    LIBRARY  6 : idealdist_contact.dat (V1.3.4.14) 20230724           
REMARK   3                 IDEAL-DISTANCE CONTACT TERM DATA AS USED IN          
REMARK   3                 PROLSQ. VALUES USED HERE ARE BASEd ON DATA           
REMARK   3                 HARVESTING OF PDB AS OF 20190109                     
REMARK   3    LIBRARY  7 : restraints for LIG (unknown) from cif                
REMARK   3                 dictionary Z270834034.cif; generated by GRADE        
REMARK   3                 1.2.21 (Feb 03 2022) from SMILES                     
REMARK   3                 CC(CN)N1CCC=2SC=CC2C1 using MOGUL                    
REMARK   3                 1.8.5(274361), CSD as541be, with quantum             
REMARK   3                 mechanics RM1                                        
REMARK   3    LIBRARY  8 : restraints for DMS (DIMETHYL SULFOXIDE) from         
REMARK   3                 cif dictionary DMS.cif; generated by grade2          
REMARK   3                 version 1.1.0a7 from                                 
REMARK   3                 PDB_chemical_components_definition_file              
REMARK   3                 ftp://ftp.ebi.ac.uk/pub/databases/msd/pdbechem_v     
REMARK   3                 2/D/DMS/DMS.cif using RDKit 2021.03.4                
REMARK   3                 ((DatabaseID PDB-DMS))                               
REMARK   3    LIBRARY  9 : assume.dat (V1.9.4.3) 20221011                       
REMARK   3                                                                      
REMARK   3   NUMBER OF GEOMETRIC FUNCTION TERMS DEFINED : 15                    
REMARK   3   TERM                          COUNT    WEIGHT   FUNCTION.          
REMARK   3    BOND LENGTHS              :   1598 ;   2.00 ;  HARMONIC           
REMARK   3    BOND ANGLES               :   2178 ;   2.00 ;  HARMONIC           
REMARK   3    TORSION ANGLES            :    542 ;   2.00 ;  SINUSOIDAL         
REMARK   3    TRIGONAL CARBON PLANES    :   NULL ;   NULL ;  NULL               
REMARK   3    GENERAL PLANES            :    279 ;   5.00 ;  HARMONIC           
REMARK   3    ISOTROPIC THERMAL FACTORS :   1598 ;  10.00 ;  HARMONIC           
REMARK   3    BAD NON-BONDED CONTACTS   :   NULL ;   NULL ;  NULL               
REMARK   3    IMPROPER TORSIONS         :   NULL ;   NULL ;  NULL               
REMARK   3    PSEUDOROTATION ANGLES     :   NULL ;   NULL ;  NULL               
REMARK   3    CHIRAL IMPROPER TORSION   :    196 ;   5.00 ;  SEMIHARMONIC       
REMARK   3    SUM OF OCCUPANCIES        :   NULL ;   NULL ;  NULL               
REMARK   3    UTILITY DISTANCES         :   NULL ;   NULL ;  NULL               
REMARK   3    UTILITY ANGLES            :   NULL ;   NULL ;  NULL               
REMARK   3    UTILITY TORSION           :   NULL ;   NULL ;  NULL               
REMARK   3    IDEAL-DIST CONTACT TERM   :   1351 ;   4.00 ;  SEMIHARMONIC       
REMARK   3                                                                      
REMARK   3   RMS DEVIATIONS FROM IDEAL VALUES.                                  
REMARK   3   BOND LENGTHS                       (A) : 0.011                     
REMARK   3   BOND ANGLES                  (DEGREES) : 1.08                      
REMARK   3   PEPTIDE OMEGA TORSION ANGLES (DEGREES) : 4.27                      
REMARK   3   OTHER TORSION ANGLES         (DEGREES) : 16.01                     
REMARK   3                                                                      
REMARK   3   SIMILARITY.                                                        
REMARK   3    NCS.                                                              
REMARK   3     NCS METHOD: NONE                                                 
REMARK   3    TARGET RESTRAINTS.                                                
REMARK   3     TARGET REPRESENTATION : NONE                                     
REMARK   3     TARGET STRUCTURE : NULL                                          
REMARK   3                                                                      
REMARK   3  TLS DETAILS.                                                        
REMARK   3   NUMBER OF TLS GROUPS  :            2                               
REMARK   3                                                                      
REMARK   3   TLS GROUP :            1                                           
REMARK   3    SET : { A|* }                                                     
REMARK   3    ORIGIN FOR THE GROUP (A):  -14.0128   -1.3223  -19.4819           
REMARK   3    T TENSOR                                                          
REMARK   3     T11:    0.0168 T22:   -0.0159                                    
REMARK   3     T33:   -0.1283 T12:    0.0996                                    
REMARK   3     T13:    0.0774 T23:    0.0547                                    
REMARK   3    L TENSOR                                                          
REMARK   3     L11:    2.3819 L22:    2.7191                                    
REMARK   3     L33:    2.6170 L12:   -1.4372                                    
REMARK   3     L13:    0.7757 L23:    0.3690                                    
REMARK   3    S TENSOR                                                          
REMARK   3     S11:    0.3682 S12:    0.3117 S13:    0.1974                     
REMARK   3     S21:   -0.4570 S22:   -0.2805 S23:   -0.1897                     
REMARK   3     S31:   -0.0100 S32:    0.4355 S33:   -0.0877                     
REMARK   3                                                                      
REMARK   3   TLS GROUP :            2                                           
REMARK   3    SET : { B|* }                                                     
REMARK   3    ORIGIN FOR THE GROUP (A):  -18.4243    1.2822  -15.4832           
REMARK   3    T TENSOR                                                          
REMARK   3     T11:    0.0730 T22:   -0.0301                                    
REMARK   3     T33:   -0.0199 T12:    0.0820                                    
REMARK   3     T13:    0.0158 T23:    0.0177                                    
REMARK   3    L TENSOR                                                          
REMARK   3     L11:    1.2370 L22:    1.1226                                    
REMARK   3     L33:    1.5938 L12:   -0.9362                                    
REMARK   3     L13:    0.4744 L23:   -0.0350                                    
REMARK   3    S TENSOR                                                          
REMARK   3     S11:    0.2186 S12:    0.0860 S13:    0.0501                     
REMARK   3     S21:   -0.1592 S22:   -0.2105 S23:    0.0382                     
REMARK   3     S31:   -0.0119 S32:    0.1525 S33:   -0.0082                     
REMARK   3                                                                      
REMARK   3  REFINEMENT NOTES.                                                   
REMARK   3   NUMBER OF REFINEMENT NOTES :   1                                   
REMARK   3   NOTE   1 : IDEAL-DIST CONTACT TERM CONTACT SETUP. ALL ATOMS        
REMARK   3               HAVE CCP4 ATOM TYPE FROM LIBRARY                       
REMARK   3
REMARK   3  OTHER REFINEMENT REMARKS: NULL
REMARK   3
REMARK 290                                                            
REMARK 290 CRYSTALLOGRAPHIC SYMMETRY                                  
REMARK 290 SYMMETRY OPERATORS FOR SPACE GROUP: P 43 2 2               
REMARK 290                                                            
REMARK 290      SYMOP   SYMMETRY                                      
REMARK 290     NNNMMM   OPERATOR                                      
REMARK 290       1555   X,Y,Z                                         
REMARK 290       2555   -X,-Y,1/2+Z                                   
REMARK 290       3555   -Y,X,3/4+Z                                    
REMARK 290       4555   Y,-X,1/4+Z                                    
REMARK 290       5555   -X,Y,-Z                                       
REMARK 290       6555   X,-Y,1/2-Z                                    
REMARK 290       7555   Y,X,1/4-Z                                     
REMARK 290       8555   -Y,-X,3/4-Z                                   
REMARK 290                                                            
REMARK 290     WHERE NNN -> OPERATOR NUMBER                           
REMARK 290           MMM -> TRANSLATION VECTOR                        
REMARK 290                                                            
REMARK 290 CRYSTALLOGRAPHIC SYMMETRY TRANSFORMATIONS                  
REMARK 290 THE FOLLOWING TRANSFORMATIONS OPERATE ON THE ATOM/HETATM   
REMARK 290 RECORDS IN THIS ENTRY TO PRODUCE CRYSTALLOGRAPHICALLY      
REMARK 290 RELATED MOLECULES.                                         
REMARK 290   SMTRY1   1  1.000000  0.000000  0.000000        0.00000
REMARK 290   SMTRY2   1  0.000000  1.000000  0.000000        0.00000
REMARK 290   SMTRY3   1  0.000000  0.000000  1.000000        0.00000
REMARK 290   SMTRY1   2 -1.000000  0.000000  0.000000        0.00000
REMARK 290   SMTRY2   2  0.000000 -1.000000  0.000000        0.00000
REMARK 290   SMTRY3   2  0.000000  0.000000  1.000000      108.53300
REMARK 290   SMTRY1   3  0.000000 -1.000000  0.000000        0.00000
REMARK 290   SMTRY2   3  1.000000  0.000000  0.000000        0.00000
REMARK 290   SMTRY3   3  0.000000  0.000000  1.000000      162.79950
REMARK 290   SMTRY1   4  0.000000  1.000000  0.000000        0.00000
REMARK 290   SMTRY2   4 -1.000000  0.000000  0.000000        0.00000
REMARK 290   SMTRY3   4  0.000000  0.000000  1.000000       54.26650
REMARK 290   SMTRY1   5 -1.000000  0.000000  0.000000        0.00000
REMARK 290   SMTRY2   5  0.000000  1.000000  0.000000        0.00000
REMARK 290   SMTRY3   5  0.000000  0.000000 -1.000000        0.00000
REMARK 290   SMTRY1   6  1.000000  0.000000  0.000000        0.00000
REMARK 290   SMTRY2   6  0.000000 -1.000000  0.000000        0.00000
REMARK 290   SMTRY3   6  0.000000  0.000000 -1.000000      108.53300
REMARK 290   SMTRY1   7  0.000000  1.000000  0.000000        0.00000
REMARK 290   SMTRY2   7  1.000000  0.000000  0.000000        0.00000
REMARK 290   SMTRY3   7  0.000000  0.000000 -1.000000       54.26650
REMARK 290   SMTRY1   8  0.000000 -1.000000  0.000000        0.00000
REMARK 290   SMTRY2   8 -1.000000  0.000000  0.000000        0.00000
REMARK 290   SMTRY3   8  0.000000  0.000000 -1.000000      162.79950
REMARK 290                                                            
REMARK 290 REMARK: NULL                                               
CRYST1   42.574   42.574  217.066  90.00  90.00  90.00 P 43 2 2                 


$$$$
Zx0472a_ligand
  PyMOL3.0          3D                             0

 13 14  0  0  0  0  0  0  0  0999 V2000
   -2.9140    5.1510  -16.4760 C   0  0  0  0  0  0  0  0  0  0  0  0
   -3.2120    4.0840  -15.5220 N   0  0  0  0  0  0  0  0  0  0  0  0
   -9.5040    4.5400  -16.1140 S   0  0  0  0  0  0  0  0  0  0  0  0
   -3.8810    5.1320  -17.6720 C   0  0  0  0  0  0  0  0  0  0  0  0
   -5.2960    5.3240  -17.2730 N   0  0  0  0  0  0  0  0  0  0  0  0
   -3.3790    6.0850  -18.7430 C   0  0  0  0  0  0  0  0  0  0  0  0
   -6.3010    5.3850  -18.3570 C   0  0  0  0  0  0  0  0  0  0  0  0
   -7.6620    5.0540  -17.7980 C   0  0  0  0  0  0  0  0  0  0  0  0
   -8.7910    4.6320  -18.5560 C   0  0  0  0  0  0  0  0  0  0  0  0
   -9.8500    4.3240  -17.7760 C   0  0  0  0  0  0  0  0  0  0  0  0
   -7.9050    5.0710  -16.4610 C   0  0  0  0  0  0  0  0  0  0  0  0
   -6.9190    5.5180  -15.4210 C   0  0  0  0  0  0  0  0  0  0  0  0
   -5.7230    6.1440  -16.1290 C   0  0  0  0  0  0  0  0  0  0  0  0
  1  4  1  0  0  0  0
  1  2  1  0  0  0  0
  3 11  4  0  0  0  0
  4  5  1  0  0  0  0
  4  6  1  0  0  0  0
  5  7  1  0  0  0  0
  5 13  1  0  0  0  0
  7  8  1  0  0  0  0
  8  9  4  0  0  0  0
  8 11  4  0  0  0  0
  9 10  4  0  0  0  0
  3 10  4  0  0  0  0
 11 12  1  0  0  0  0
 12 13  1  0  0  0  0
M  END
>  <pdb_header>
COMPND    XX01ZVNS2B-x0472_B_301_XX01ZVNS2B-x1291+B+301+1


$$$$
Zx0490a
  PyMOL3.0          3D                             0

 11 12  0  0  0  0  0  0  0  0999 V2000
   -6.0770    5.1180  -17.8430 N   0  0  0  0  0  0  0  0  0  0  0  0
   -3.6870    4.7180  -17.3000 C   0  0  0  0  0  0  0  0  0  0  0  0
   -5.0050    5.2930  -16.8340 C   0  0  0  0  0  0  0  0  0  0  0  0
   -7.0990    4.9910  -19.8350 N   0  0  0  0  0  0  0  0  0  0  0  0
   -5.9670    5.1680  -19.2020 C   0  0  0  0  0  0  0  0  0  0  0  0
   -8.0360    4.7930  -18.8150 C   0  0  0  0  0  0  0  0  0  0  0  0
   -9.3980    4.5060  -18.8850 C   0  0  0  0  0  0  0  0  0  0  0  0
  -10.1010    4.3180  -17.7050 C   0  0  0  0  0  0  0  0  0  0  0  0
   -9.4620    4.3990  -16.4690 C   0  0  0  0  0  0  0  0  0  0  0  0
   -8.1050    4.6810  -16.3820 C   0  0  0  0  0  0  0  0  0  0  0  0
   -7.4140    4.8740  -17.5710 C   0  0  0  0  0  0  0  0  0  0  0  0
  1  5  4  0  0  0  0
  1 11  4  0  0  0  0
  2  3  1  0  0  0  0
  1  3  1  0  0  0  0
  4  5  4  0  0  0  0
  4  6  4  0  0  0  0
  6  7  4  0  0  0  0
  7  8  4  0  0  0  0
  8  9  4  0  0  0  0
  9 10  4  0  0  0  0
  6 11  4  0  0  0  0
 10 11  4  0  0  0  0
M  END
>  <pdb_header>
HEADER    ----                                    18-MAY-23                     
TITLE     ---                                                                   
EXPDTA    X-RAY DIFFRACTION                                                     
REMARK --------------------- added by autoBUSTER ---------------------------------START
REMARK run at   = Fri Sep 29 18:06:01 BST 2023
REMARK     in   = /dls/labxchem/data/lb32627/lb32627-65/processing/analysis/model_building/XX01ZVNS2B-x0490
REMARK     user = kyf22269
REMARK     cmd  = \
REMARK            /dls_sw/apps/GPhL/BUSTER/20230726/autoBUSTER/bin/linux64/refine \
REMARK            -p \
REMARK            /dls/labxchem/data/lb32627/lb32627-65/processing/analysis/model_building/XX01ZVNS2B-x0490/cootOut/Refi
REMARK            -m \
REMARK            /dls/labxchem/data/lb32627/lb32627-65/processing/analysis/model_building/XX01ZVNS2B-x0490/XX01ZVNS2B-x
REMARK            -l \
REMARK            /dls/labxchem/data/lb32627/lb32627-65/processing/analysis/model_building/XX01ZVNS2B-x0490/Z53833304.ci
REMARK            -autoncs -M TLSbasic -d Refine_6
REMARK Files used:
REMARK   PDB              = Refine_6/pdbchk.pdb
REMARK   MTZ              = /dls/labxchem/data/lb32627/lb32627-65/processing/analysis/model_building/XX01ZVNS2B-x0490/XX
REMARK output written to subdirectory = Refine_6
REMARK best refinement for F,SIGF with R/Rfree 0.2202/0.2501
REMARK header records are copied from input PDB file (apart from REMARK 3!)
REMARK --------------------- added by autoBUSTER -----------------------------------END
REMARK --------------------- added by autoBUSTER -------------------------------
REMARK run at   = Wed Jun 14 21:53:49 BST 2023                                  
REMARK     in   = /dls/labxchem/data/lb32627/lb32627-65/processing/analysis/mode
REMARK     user = xau79897                                                      
REMARK     cmd  = \                                                             
REMARK            /dls_sw/apps/GPhL/BUSTER/20230614/autoBUSTER/bin/linux64/refin
REMARK            -p \                                                          
REMARK            /dls/labxchem/data/lb32627/lb32627-65/processing/analysis/mode
REMARK            -m \                                                          
REMARK            /dls/labxchem/data/lb32627/lb32627-65/processing/analysis/mode
REMARK            -l \                                                          
REMARK            /dls/labxchem/data/lb32627/lb32627-65/processing/analysis/mode
REMARK            -autoncs -M TLSbasic StopOnGellySanityCheckError=no -d \      
REMARK            Refine_5                                                      
REMARK Files used:                                                              
REMARK   PDB              = Refine_5/pdbchk.pdb                                 
REMARK   MTZ              = /dls/labxchem/data/lb32627/lb32627-65/processing/ana
REMARK output written to subdirectory = Refine_5                                
REMARK best refinement for F,SIGF with R/Rfree 0.2200/0.2500                    
REMARK header records are copied from input PDB file (apart from REMARK 3!)     
REMARK --------------------- added by autoBUSTER -------------------------------
REMARK --------------------- added by autoBUSTER -------------------------------
REMARK run at   = Wed May 24 13:57:20 BST 2023                                  
REMARK     in   = /dls/labxchem/data/lb32627/lb32627-65/processing/analysis/mode
REMARK     user = xau79897                                                      
REMARK     cmd  = \                                                             
REMARK            /dls_sw/apps/GPhL/BUSTER/20230217/autoBUSTER/bin/linux64/refin
REMARK            -p \                                                          
REMARK            /dls/labxchem/data/lb32627/lb32627-65/processing/analysis/mode
REMARK            -m \                                                          
REMARK            /dls/labxchem/data/lb32627/lb32627-65/processing/analysis/mode
REMARK            -l \                                                          
REMARK            /dls/labxchem/data/lb32627/lb32627-65/processing/analysis/mode
REMARK            -autoncs -M TLSbasic -WAT -B user -Gelly gelly.dat \          
REMARK            StopOnGellySanityCheckError=no -d Refine_4                    
REMARK Files used:                                                              
REMARK   PDB              = Refine_4/pdbchk.pdb                                 
REMARK   MTZ              = /dls/labxchem/data/lb32627/lb32627-65/processing/ana
REMARK   Gelly commands       = /dls/labxchem/data/lb32627/lb32627-65/processing
REMARK output written to subdirectory = Refine_4                                
REMARK best refinement for F,SIGF with R/Rfree 0.2223/0.2501                    
REMARK header records are copied from input PDB file (apart from REMARK 3!)     
REMARK --------------------- added by autoBUSTER -------------------------------
REMARK --------------------- added by autoBUSTER -------------------------------
REMARK run at   = Tue May 23 17:07:27 BST 2023                                  
REMARK     in   = /dls/labxchem/data/lb32627/lb32627-65/processing/analysis/mode
REMARK     user = xau79897                                                      
REMARK     cmd  = \                                                             
REMARK            /dls_sw/apps/GPhL/BUSTER/20230217/autoBUSTER/bin/linux64/refin
REMARK            -p \                                                          
REMARK            /dls/labxchem/data/lb32627/lb32627-65/processing/analysis/mode
REMARK            -m \                                                          
REMARK            /dls/labxchem/data/lb32627/lb32627-65/processing/analysis/mode
REMARK            -l \                                                          
REMARK            /dls/labxchem/data/lb32627/lb32627-65/processing/analysis/mode
REMARK            -autoncs -M TLSbasic -d Refine_3                              
REMARK Files used:                                                              
REMARK   PDB              = Refine_3/pdbchk.pdb                                 
REMARK   MTZ              = /dls/labxchem/data/lb32627/lb32627-65/processing/ana
REMARK output written to subdirectory = Refine_3                                
REMARK best refinement for F,SIGF with R/Rfree 0.2364/0.2587                    
REMARK header records are copied from input PDB file (apart from REMARK 3!)     
REMARK --------------------- added by autoBUSTER -------------------------------
REMARK   2                                                            
REMARK   2 RESOLUTION.    1.40 ANGSTROMS.
REMARK   3
REMARK   3 REFINEMENT.
REMARK   3   PROGRAM     : BUSTER 2.10.4 (26-JUL-2023)
REMARK   3   AUTHORS     : BRICOGNE,BLANC,BRANDL,FLENSBURG,KELLER,
REMARK   3               : PACIOREK,ROVERSI,SHARFF,SMART,VONRHEIN,WOMACK;
REMARK   3               : MATTHEWS,TEN EYCK,TRONRUD
REMARK   3
REMARK   3  DATA USED IN REFINEMENT.
REMARK   3   RESOLUTION RANGE HIGH (ANGSTROMS) : 1.398
REMARK   3   RESOLUTION RANGE LOW  (ANGSTROMS) : 19.35
REMARK   3   DATA CUTOFF            (SIGMA(F)) : 0.000
REMARK   3   COMPLETENESS FOR RANGE        (%) : 88.2
REMARK   3   NUMBER OF REFLECTIONS             : 36108
REMARK   3
REMARK   3  FIT TO DATA USED IN REFINEMENT.
REMARK   3   CROSS-VALIDATION METHOD          : THROUGHOUT
REMARK   3   FREE R VALUE TEST SET SELECTION  : RANDOM
REMARK   3   R VALUE     (WORKING + TEST SET) : 0.2217
REMARK   3   R VALUE            (WORKING SET) : 0.2202
REMARK   3   FREE R VALUE                     : 0.2501
REMARK   3   FREE R VALUE TEST SET SIZE   (%) : 5.070
REMARK   3   FREE R VALUE TEST SET COUNT      : 1830
REMARK   3   ESTIMATED ERROR OF FREE R VALUE  : NULL
REMARK   3
REMARK   3  FIT IN THE HIGHEST RESOLUTION BIN.
REMARK   3   TOTAL NUMBER OF BINS USED           : 51
REMARK   3   BIN RESOLUTION RANGE HIGH       (A) : 1.40
REMARK   3   BIN RESOLUTION RANGE LOW        (A) : 1.47
REMARK   3   BIN COMPLETENESS (WORKING+TEST) (%) : 13.30
REMARK   3   REFLECTIONS IN BIN   (WORKING+TEST) : 723
REMARK   3   BIN R VALUE          (WORKING+TEST) : 0.6109
REMARK   3   REFLECTIONS IN BIN    (WORKING SET) : 687
REMARK   3   BIN R VALUE           (WORKING SET) : 0.6115
REMARK   3   BIN FREE R VALUE                    : 0.6007
REMARK   3   BIN FREE R VALUE TEST SET SIZE  (%) : 4.98
REMARK   3   BIN FREE R VALUE TEST SET COUNT     : 36
REMARK   3   ESTIMATED ERROR OF BIN FREE R VALUE : NULL
REMARK   3
REMARK   3  NUMBER OF NON-HYDROGEN ATOMS USED IN REFINEMENT.
REMARK   3   PROTEIN ATOMS            : 1476
REMARK   3   NUCLEIC ACID ATOMS       : 0
REMARK   3   HETEROGEN ATOMS          : 19
REMARK   3   SOLVENT ATOMS            : 145
REMARK   3
REMARK   3  B VALUES.
REMARK   3   FROM WILSON PLOT           (A**2) : 29.30
REMARK   3   MEAN B VALUE      (OVERALL, A**2) : 42.15
REMARK   3   OVERALL ANISOTROPIC B VALUE.
REMARK   3    B11 (A**2) : -4.72140
REMARK   3    B22 (A**2) : -4.72140
REMARK   3    B33 (A**2) : 9.44280
REMARK   3    B12 (A**2) : 0.00000
REMARK   3    B13 (A**2) : 0.00000
REMARK   3    B23 (A**2) : 0.00000
REMARK   3
REMARK   3  ESTIMATED COORDINATE ERROR.
REMARK   3   ESD FROM LUZZATI PLOT                    (A) : 0.28
REMARK   3   DPI (BLOW EQ-10) BASED ON R VALUE        (A) : 0.082
REMARK   3   DPI (BLOW EQ-9) BASED ON FREE R VALUE    (A) : 0.083
REMARK   3   DPI (CRUICKSHANK) BASED ON R VALUE       (A) : 0.077
REMARK   3   DPI (CRUICKSHANK) BASED ON FREE R VALUE  (A) : 0.079
REMARK   3
REMARK   3   REFERENCES: BLOW, D. (2002) ACTA CRYST D58, 792-797
REMARK   3               CRUICKSHANK, D.W.J. (1999) ACTA CRYST D55, 583-601
REMARK   3
REMARK   3  CORRELATION COEFFICIENTS.
REMARK   3   CORRELATION COEFFICIENT FO-FC      : 0.953
REMARK   3   CORRELATION COEFFICIENT FO-FC FREE : 0.946
REMARK   3
REMARK   3  X-RAY WEIGHT : 5.84
REMARK   3
REMARK   3  GEOMETRY FUNCTION.                                                  
REMARK   3   RESTRAINT LIBRARIES.                                               
REMARK   3    NUMBER OF LIBRARIES USED :   9                                    
REMARK   3    LIBRARY  1 : protgeo_eh99.dat (V1.6.4.20) 20220523  STANDARD      
REMARK   3                 AMINO ACID DICTIONARY. BONDS AND ANGLES FROM         
REMARK   3                 ENGH AND HUBER EH99. OTHER VALUES BASED ON           
REMARK   3                 PREVIOUS TNT OR TAKEN FROM CCP4. INCLUDES            
REMARK   3                 HYDROGEN ATOMS.                                      
REMARK   3    LIBRARY  2 : exoticaa.dat (V1.3.4.16) 20220523  COLLECTION        
REMARK   3                 OF NON-STANDARD AMINO ACIDS, MAINLY EH91             
REMARK   3                 WITHOUT IDEAL DISTANCE INFO                          
REMARK   3    LIBRARY  3 : nuclgeo.dat (V1.13.4.9) 20221011                     
REMARK   3    LIBRARY  4 : bcorrel.dat (V1.15.10.2) 20190616                    
REMARK   3    LIBRARY  5 : contact.dat (V1.15.12.10) 20191121                   
REMARK   3    LIBRARY  6 : idealdist_contact.dat (V1.3.4.14) 20230724           
REMARK   3                 IDEAL-DISTANCE CONTACT TERM DATA AS USED IN          
REMARK   3                 PROLSQ. VALUES USED HERE ARE BASEd ON DATA           
REMARK   3                 HARVESTING OF PDB AS OF 20190109                     
REMARK   3    LIBRARY  7 : restraints for LIG (unknown) from cif                
REMARK   3                 dictionary Z53833304.cif; generated by GRADE         
REMARK   3                 1.2.21 (Feb 03 2022) from SMILES                     
REMARK   3                 CCN1C=NC=2C=CC=CC12 using MOGUL 1.8.5(274361),       
REMARK   3                 CSD as541be, with quantum mechanics RM1              
REMARK   3    LIBRARY  8 : restraints for DMS (DIMETHYL SULFOXIDE) from         
REMARK   3                 cif dictionary DMS.cif; generated by grade2          
REMARK   3                 version 1.1.0a7 from                                 
REMARK   3                 PDB_chemical_components_definition_file              
REMARK   3                 ftp://ftp.ebi.ac.uk/pub/databases/msd/pdbechem_v     
REMARK   3                 2/D/DMS/DMS.cif using RDKit 2021.03.4                
REMARK   3                 ((DatabaseID PDB-DMS))                               
REMARK   3    LIBRARY  9 : assume.dat (V1.9.4.3) 20221011                       
REMARK   3                                                                      
REMARK   3   NUMBER OF GEOMETRIC FUNCTION TERMS DEFINED : 15                    
REMARK   3   TERM                          COUNT    WEIGHT   FUNCTION.          
REMARK   3    BOND LENGTHS              :   1596 ;   2.00 ;  HARMONIC           
REMARK   3    BOND ANGLES               :   2175 ;   2.00 ;  HARMONIC           
REMARK   3    TORSION ANGLES            :    536 ;   2.00 ;  SINUSOIDAL         
REMARK   3    TRIGONAL CARBON PLANES    :   NULL ;   NULL ;  NULL               
REMARK   3    GENERAL PLANES            :    286 ;   5.00 ;  HARMONIC           
REMARK   3    ISOTROPIC THERMAL FACTORS :   1596 ;  10.00 ;  HARMONIC           
REMARK   3    BAD NON-BONDED CONTACTS   :   NULL ;   NULL ;  NULL               
REMARK   3    IMPROPER TORSIONS         :   NULL ;   NULL ;  NULL               
REMARK   3    PSEUDOROTATION ANGLES     :   NULL ;   NULL ;  NULL               
REMARK   3    CHIRAL IMPROPER TORSION   :    196 ;   5.00 ;  SEMIHARMONIC       
REMARK   3    SUM OF OCCUPANCIES        :   NULL ;   NULL ;  NULL               
REMARK   3    UTILITY DISTANCES         :   NULL ;   NULL ;  NULL               
REMARK   3    UTILITY ANGLES            :   NULL ;   NULL ;  NULL               
REMARK   3    UTILITY TORSION           :   NULL ;   NULL ;  NULL               
REMARK   3    IDEAL-DIST CONTACT TERM   :   1371 ;   4.00 ;  SEMIHARMONIC       
REMARK   3                                                                      
REMARK   3   RMS DEVIATIONS FROM IDEAL VALUES.                                  
REMARK   3   BOND LENGTHS                       (A) : 0.011                     
REMARK   3   BOND ANGLES                  (DEGREES) : 1.05                      
REMARK   3   PEPTIDE OMEGA TORSION ANGLES (DEGREES) : 4.24                      
REMARK   3   OTHER TORSION ANGLES         (DEGREES) : 16.85                     
REMARK   3                                                                      
REMARK   3   SIMILARITY.                                                        
REMARK   3    NCS.                                                              
REMARK   3     NCS METHOD: NONE                                                 
REMARK   3    TARGET RESTRAINTS.                                                
REMARK   3     TARGET REPRESENTATION : NONE                                     
REMARK   3     TARGET STRUCTURE : NULL                                          
REMARK   3                                                                      
REMARK   3  TLS DETAILS.                                                        
REMARK   3   NUMBER OF TLS GROUPS  :            2                               
REMARK   3                                                                      
REMARK   3   TLS GROUP :            1                                           
REMARK   3    SET : { A|* }                                                     
REMARK   3    ORIGIN FOR THE GROUP (A):  -13.6702   -1.2859  -19.3492           
REMARK   3    T TENSOR                                                          
REMARK   3     T11:   -0.0055 T22:   -0.0517                                    
REMARK   3     T33:   -0.1191 T12:    0.0719                                    
REMARK   3     T13:    0.0726 T23:    0.0453                                    
REMARK   3    L TENSOR                                                          
REMARK   3     L11:    2.5469 L22:    2.7753                                    
REMARK   3     L33:    2.5385 L12:   -1.3901                                    
REMARK   3     L13:    0.6073 L23:    0.4511                                    
REMARK   3    S TENSOR                                                          
REMARK   3     S11:    0.3043 S12:    0.2330 S13:    0.1634                     
REMARK   3     S21:   -0.4008 S22:   -0.2108 S23:   -0.1662                     
REMARK   3     S31:    0.0021 S32:    0.3666 S33:   -0.0935                     
REMARK   3                                                                      
REMARK   3   TLS GROUP :            2                                           
REMARK   3    SET : { B|* }                                                     
REMARK   3    ORIGIN FOR THE GROUP (A):  -18.5428    1.3448  -15.5052           
REMARK   3    T TENSOR                                                          
REMARK   3     T11:    0.0524 T22:   -0.0298                                    
REMARK   3     T33:   -0.0170 T12:    0.0777                                    
REMARK   3     T13:    0.0170 T23:    0.0129                                    
REMARK   3    L TENSOR                                                          
REMARK   3     L11:    1.2871 L22:    1.1436                                    
REMARK   3     L33:    1.5263 L12:   -0.9204                                    
REMARK   3     L13:    0.5123 L23:    0.0291                                    
REMARK   3    S TENSOR                                                          
REMARK   3     S11:    0.1980 S12:    0.0532 S13:    0.0543                     
REMARK   3     S21:   -0.1536 S22:   -0.1816 S23:    0.0348                     
REMARK   3     S31:   -0.0136 S32:    0.1381 S33:   -0.0164                     
REMARK   3                                                                      
REMARK   3  REFINEMENT NOTES.                                                   
REMARK   3   NUMBER OF REFINEMENT NOTES :   1                                   
REMARK   3   NOTE   1 : IDEAL-DIST CONTACT TERM CONTACT SETUP. ALL ATOMS        
REMARK   3               HAVE CCP4 ATOM TYPE FROM LIBRARY                       
REMARK   3
REMARK   3  OTHER REFINEMENT REMARKS: NULL
REMARK   3
REMARK 290                                                            
REMARK 290 CRYSTALLOGRAPHIC SYMMETRY                                  
REMARK 290 SYMMETRY OPERATORS FOR SPACE GROUP: P 43 2 2               
REMARK 290                                                            
REMARK 290      SYMOP   SYMMETRY                                      
REMARK 290     NNNMMM   OPERATOR                                      
REMARK 290       1555   X,Y,Z                                         
REMARK 290       2555   -X,-Y,1/2+Z                                   
REMARK 290       3555   -Y,X,3/4+Z                                    
REMARK 290       4555   Y,-X,1/4+Z                                    
REMARK 290       5555   -X,Y,-Z                                       
REMARK 290       6555   X,-Y,1/2-Z                                    
REMARK 290       7555   Y,X,1/4-Z                                     
REMARK 290       8555   -Y,-X,3/4-Z                                   
REMARK 290                                                            
REMARK 290     WHERE NNN -> OPERATOR NUMBER                           
REMARK 290           MMM -> TRANSLATION VECTOR                        
REMARK 290                                                            
REMARK 290 CRYSTALLOGRAPHIC SYMMETRY TRANSFORMATIONS                  
REMARK 290 THE FOLLOWING TRANSFORMATIONS OPERATE ON THE ATOM/HETATM   
REMARK 290 RECORDS IN THIS ENTRY TO PRODUCE CRYSTALLOGRAPHICALLY      
REMARK 290 RELATED MOLECULES.                                         
REMARK 290   SMTRY1   1  1.000000  0.000000  0.000000        0.00000
REMARK 290   SMTRY2   1  0.000000  1.000000  0.000000        0.00000
REMARK 290   SMTRY3   1  0.000000  0.000000  1.000000        0.00000
REMARK 290   SMTRY1   2 -1.000000  0.000000  0.000000        0.00000
REMARK 290   SMTRY2   2  0.000000 -1.000000  0.000000        0.00000
REMARK 290   SMTRY3   2  0.000000  0.000000  1.000000      108.67050
REMARK 290   SMTRY1   3  0.000000 -1.000000  0.000000        0.00000
REMARK 290   SMTRY2   3  1.000000  0.000000  0.000000        0.00000
REMARK 290   SMTRY3   3  0.000000  0.000000  1.000000      163.00575
REMARK 290   SMTRY1   4  0.000000  1.000000  0.000000        0.00000
REMARK 290   SMTRY2   4 -1.000000  0.000000  0.000000        0.00000
REMARK 290   SMTRY3   4  0.000000  0.000000  1.000000       54.33525
REMARK 290   SMTRY1   5 -1.000000  0.000000  0.000000        0.00000
REMARK 290   SMTRY2   5  0.000000  1.000000  0.000000        0.00000
REMARK 290   SMTRY3   5  0.000000  0.000000 -1.000000        0.00000
REMARK 290   SMTRY1   6  1.000000  0.000000  0.000000        0.00000
REMARK 290   SMTRY2   6  0.000000 -1.000000  0.000000        0.00000
REMARK 290   SMTRY3   6  0.000000  0.000000 -1.000000      108.67050
REMARK 290   SMTRY1   7  0.000000  1.000000  0.000000        0.00000
REMARK 290   SMTRY2   7  1.000000  0.000000  0.000000        0.00000
REMARK 290   SMTRY3   7  0.000000  0.000000 -1.000000       54.33525
REMARK 290   SMTRY1   8  0.000000 -1.000000  0.000000        0.00000
REMARK 290   SMTRY2   8 -1.000000  0.000000  0.000000        0.00000
REMARK 290   SMTRY3   8  0.000000  0.000000 -1.000000      163.00575
REMARK 290                                                            
REMARK 290 REMARK: NULL                                               
CRYST1   42.527   42.527  217.341  90.00  90.00  90.00 P 43 2 2                 


$$$$
Zx0490a_ligand
  PyMOL3.0          3D                             0

 11 12  0  0  0  0  0  0  0  0999 V2000
   -3.6870    4.7180  -17.3000 C   0  0  0  0  0  0  0  0  0  0  0  0
   -6.0770    5.1180  -17.8430 N   0  0  0  0  0  0  0  0  0  0  0  0
   -5.0050    5.2930  -16.8340 C   0  0  0  0  0  0  0  0  0  0  0  0
   -7.0990    4.9910  -19.8350 N   0  0  0  0  0  0  0  0  0  0  0  0
   -7.4140    4.8740  -17.5710 C   0  0  0  0  0  0  0  0  0  0  0  0
   -8.0360    4.7930  -18.8150 C   0  0  0  0  0  0  0  0  0  0  0  0
   -5.9670    5.1680  -19.2020 C   0  0  0  0  0  0  0  0  0  0  0  0
   -8.1050    4.6810  -16.3820 C   0  0  0  0  0  0  0  0  0  0  0  0
   -9.4620    4.3990  -16.4690 C   0  0  0  0  0  0  0  0  0  0  0  0
  -10.1010    4.3180  -17.7050 C   0  0  0  0  0  0  0  0  0  0  0  0
   -9.3980    4.5060  -18.8850 C   0  0  0  0  0  0  0  0  0  0  0  0
  1  3  1  0  0  0  0
  2  5  4  0  0  0  0
  2  7  4  0  0  0  0
  2  3  1  0  0  0  0
  4  7  4  0  0  0  0
  5  6  4  0  0  0  0
  5  8  4  0  0  0  0
  4  6  4  0  0  0  0
  6 11  4  0  0  0  0
  8  9  4  0  0  0  0
  9 10  4  0  0  0  0
 10 11  4  0  0  0  0
M  END
>  <pdb_header>
COMPND    XX01ZVNS2B-x0490_B_301_XX01ZVNS2B-x1291+B+301+1


$$$$
Zx0553a
  PyMOL3.0          3D                             0

  9  9  0  0  0  0  0  0  0  0999 V2000
   -6.8260    4.7890  -16.7690 N   0  3  0  0  0  0  0  0  0  0  0  0
   -5.4590    5.0020  -16.2480 C   0  0  0  0  0  0  0  0  0  0  0  0
   -7.0610    4.8980  -18.0940 C   0  0  0  0  0  0  0  0  0  0  0  0
  -11.7880    4.1940  -18.6020 N   0  0  0  0  0  0  0  0  0  0  0  0
   -8.3200    4.7130  -18.6050 C   0  0  0  0  0  0  0  0  0  0  0  0
   -9.3680    4.4270  -17.7350 C   0  0  0  0  0  0  0  0  0  0  0  0
  -10.7130    4.3000  -18.2360 C   0  0  0  0  0  0  0  0  0  0  0  0
   -9.1110    4.3090  -16.3720 C   0  0  0  0  0  0  0  0  0  0  0  0
   -7.8290    4.4910  -15.9170 C   0  0  0  0  0  0  0  0  0  0  0  0
  1  2  1  0  0  0  0
  1  3  4  0  0  0  0
  4  7  3  0  0  0  0
  3  5  4  0  0  0  0
  5  6  4  0  0  0  0
  6  8  4  0  0  0  0
  6  7  1  0  0  0  0
  8  9  4  0  0  0  0
  1  9  4  0  0  0  0
M  END
>  <pdb_header>
HEADER    ----                                    18-MAY-23                     
TITLE     ---                                                                   
EXPDTA    X-RAY DIFFRACTION                                                     
REMARK --------------------- added by autoBUSTER ---------------------------------START
REMARK run at   = Fri Sep 29 18:07:05 BST 2023
REMARK     in   = /dls/labxchem/data/lb32627/lb32627-65/processing/analysis/model_building/XX01ZVNS2B-x0553
REMARK     user = kyf22269
REMARK     cmd  = \
REMARK            /dls_sw/apps/GPhL/BUSTER/20230726/autoBUSTER/bin/linux64/refine \
REMARK            -p \
REMARK            /dls/labxchem/data/lb32627/lb32627-65/processing/analysis/model_building/XX01ZVNS2B-x0553/cootOut/Refi
REMARK            -m \
REMARK            /dls/labxchem/data/lb32627/lb32627-65/processing/analysis/model_building/XX01ZVNS2B-x0553/XX01ZVNS2B-x
REMARK            -l \
REMARK            /dls/labxchem/data/lb32627/lb32627-65/processing/analysis/model_building/XX01ZVNS2B-x0553/Z57493554.ci
REMARK            -autoncs -M TLSbasic -d Refine_7
REMARK Files used:
REMARK   PDB              = Refine_7/pdbchk.pdb
REMARK   MTZ              = /dls/labxchem/data/lb32627/lb32627-65/processing/analysis/model_building/XX01ZVNS2B-x0553/XX
REMARK output written to subdirectory = Refine_7
REMARK best refinement for F,SIGF with R/Rfree 0.2183/0.2478
REMARK header records are copied from input PDB file (apart from REMARK 3!)
REMARK --------------------- added by autoBUSTER -----------------------------------END
REMARK --------------------- added by autoBUSTER -------------------------------
REMARK run at   = Wed Jun 14 23:48:22 BST 2023                                  
REMARK     in   = /dls/labxchem/data/lb32627/lb32627-65/processing/analysis/mode
REMARK     user = xau79897                                                      
REMARK     cmd  = \                                                             
REMARK            /dls_sw/apps/GPhL/BUSTER/20230614/autoBUSTER/bin/linux64/refin
REMARK            -p \                                                          
REMARK            /dls/labxchem/data/lb32627/lb32627-65/processing/analysis/mode
REMARK            -m \                                                          
REMARK            /dls/labxchem/data/lb32627/lb32627-65/processing/analysis/mode
REMARK            -l \                                                          
REMARK            /dls/labxchem/data/lb32627/lb32627-65/processing/analysis/mode
REMARK            -autoncs -M TLSbasic StopOnGellySanityCheckError=no -d \      
REMARK            Refine_6                                                      
REMARK Files used:                                                              
REMARK   PDB              = Refine_6/pdbchk.pdb                                 
REMARK   MTZ              = /dls/labxchem/data/lb32627/lb32627-65/processing/ana
REMARK output written to subdirectory = Refine_6                                
REMARK best refinement for F,SIGF with R/Rfree 0.2182/0.2479                    
REMARK header records are copied from input PDB file (apart from REMARK 3!)     
REMARK --------------------- added by autoBUSTER -------------------------------
REMARK --------------------- added by autoBUSTER -------------------------------
REMARK run at   = Mon May 29 19:55:44 BST 2023                                  
REMARK     in   = /dls/labxchem/data/lb32627/lb32627-65/processing/analysis/mode
REMARK     user = xau79897                                                      
REMARK     cmd  = \                                                             
REMARK            /dls_sw/apps/GPhL/BUSTER/20230217/autoBUSTER/bin/linux64/refin
REMARK            -p \                                                          
REMARK            /dls/labxchem/data/lb32627/lb32627-65/processing/analysis/mode
REMARK            -m \                                                          
REMARK            /dls/labxchem/data/lb32627/lb32627-65/processing/analysis/mode
REMARK            -l \                                                          
REMARK            /dls/labxchem/data/lb32627/lb32627-65/processing/analysis/mode
REMARK            -autoncs -M TLSbasic -B user -Gelly gelly.dat \               
REMARK            StopOnGellySanityCheckError=no -d Refine_5                    
REMARK Files used:                                                              
REMARK   PDB              = Refine_5/pdbchk.pdb                                 
REMARK   MTZ              = /dls/labxchem/data/lb32627/lb32627-65/processing/ana
REMARK   Gelly commands       = /dls/labxchem/data/lb32627/lb32627-65/processing
REMARK output written to subdirectory = Refine_5                                
REMARK best refinement for F,SIGF with R/Rfree 0.2178/0.2472                    
REMARK header records are copied from input PDB file (apart from REMARK 3!)     
REMARK --------------------- added by autoBUSTER -------------------------------
REMARK --------------------- added by autoBUSTER -------------------------------
REMARK run at   = Wed May 24 13:59:34 BST 2023                                  
REMARK     in   = /dls/labxchem/data/lb32627/lb32627-65/processing/analysis/mode
REMARK     user = xau79897                                                      
REMARK     cmd  = \                                                             
REMARK            /dls_sw/apps/GPhL/BUSTER/20230217/autoBUSTER/bin/linux64/refin
REMARK            -p \                                                          
REMARK            /dls/labxchem/data/lb32627/lb32627-65/processing/analysis/mode
REMARK            -m \                                                          
REMARK            /dls/labxchem/data/lb32627/lb32627-65/processing/analysis/mode
REMARK            -l \                                                          
REMARK            /dls/labxchem/data/lb32627/lb32627-65/processing/analysis/mode
REMARK            -autoncs -M TLSbasic -WAT -B user -Gelly gelly.dat \          
REMARK            StopOnGellySanityCheckError=no -d Refine_4                    
REMARK Files used:                                                              
REMARK   PDB              = Refine_4/pdbchk.pdb                                 
REMARK   MTZ              = /dls/labxchem/data/lb32627/lb32627-65/processing/ana
REMARK   Gelly commands       = /dls/labxchem/data/lb32627/lb32627-65/processing
REMARK output written to subdirectory = Refine_4                                
REMARK best refinement for F,SIGF with R/Rfree 0.2184/0.2459                    
REMARK header records are copied from input PDB file (apart from REMARK 3!)     
REMARK --------------------- added by autoBUSTER -------------------------------
REMARK --------------------- added by autoBUSTER -------------------------------
REMARK run at   = Tue May 23 17:07:41 BST 2023                                  
REMARK     in   = /dls/labxchem/data/lb32627/lb32627-65/processing/analysis/mode
REMARK     user = xau79897                                                      
REMARK     cmd  = \                                                             
REMARK            /dls_sw/apps/GPhL/BUSTER/20230217/autoBUSTER/bin/linux64/refin
REMARK            -p \                                                          
REMARK            /dls/labxchem/data/lb32627/lb32627-65/processing/analysis/mode
REMARK            -m \                                                          
REMARK            /dls/labxchem/data/lb32627/lb32627-65/processing/analysis/mode
REMARK            -l \                                                          
REMARK            /dls/labxchem/data/lb32627/lb32627-65/processing/analysis/mode
REMARK            -autoncs -M TLSbasic -d Refine_3                              
REMARK Files used:                                                              
REMARK   PDB              = Refine_3/pdbchk.pdb                                 
REMARK   MTZ              = /dls/labxchem/data/lb32627/lb32627-65/processing/ana
REMARK output written to subdirectory = Refine_3                                
REMARK best refinement for F,SIGF with R/Rfree 0.2275/0.2463                    
REMARK header records are copied from input PDB file (apart from REMARK 3!)     
REMARK --------------------- added by autoBUSTER -------------------------------
REMARK   2                                                            
REMARK   2 RESOLUTION.    1.37 ANGSTROMS.
REMARK   3
REMARK   3 REFINEMENT.
REMARK   3   PROGRAM     : BUSTER 2.10.4 (26-JUL-2023)
REMARK   3   AUTHORS     : BRICOGNE,BLANC,BRANDL,FLENSBURG,KELLER,
REMARK   3               : PACIOREK,ROVERSI,SHARFF,SMART,VONRHEIN,WOMACK;
REMARK   3               : MATTHEWS,TEN EYCK,TRONRUD
REMARK   3
REMARK   3  DATA USED IN REFINEMENT.
REMARK   3   RESOLUTION RANGE HIGH (ANGSTROMS) : 1.371
REMARK   3   RESOLUTION RANGE LOW  (ANGSTROMS) : 15.59
REMARK   3   DATA CUTOFF            (SIGMA(F)) : 0.000
REMARK   3   COMPLETENESS FOR RANGE        (%) : 90.6
REMARK   3   NUMBER OF REFLECTIONS             : 39263
REMARK   3
REMARK   3  FIT TO DATA USED IN REFINEMENT.
REMARK   3   CROSS-VALIDATION METHOD          : THROUGHOUT
REMARK   3   FREE R VALUE TEST SET SELECTION  : RANDOM
REMARK   3   R VALUE     (WORKING + TEST SET) : 0.2198
REMARK   3   R VALUE            (WORKING SET) : 0.2183
REMARK   3   FREE R VALUE                     : 0.2478
REMARK   3   FREE R VALUE TEST SET SIZE   (%) : 5.090
REMARK   3   FREE R VALUE TEST SET COUNT      : 1997
REMARK   3   ESTIMATED ERROR OF FREE R VALUE  : NULL
REMARK   3
REMARK   3  FIT IN THE HIGHEST RESOLUTION BIN.
REMARK   3   TOTAL NUMBER OF BINS USED           : 51
REMARK   3   BIN RESOLUTION RANGE HIGH       (A) : 1.37
REMARK   3   BIN RESOLUTION RANGE LOW        (A) : 1.42
REMARK   3   BIN COMPLETENESS (WORKING+TEST) (%) : 17.64
REMARK   3   REFLECTIONS IN BIN   (WORKING+TEST) : 786
REMARK   3   BIN R VALUE          (WORKING+TEST) : 0.5953
REMARK   3   REFLECTIONS IN BIN    (WORKING SET) : 742
REMARK   3   BIN R VALUE           (WORKING SET) : 0.5924
REMARK   3   BIN FREE R VALUE                    : 0.6463
REMARK   3   BIN FREE R VALUE TEST SET SIZE  (%) : 5.60
REMARK   3   BIN FREE R VALUE TEST SET COUNT     : 44
REMARK   3   ESTIMATED ERROR OF BIN FREE R VALUE : NULL
REMARK   3
REMARK   3  NUMBER OF NON-HYDROGEN ATOMS USED IN REFINEMENT.
REMARK   3   PROTEIN ATOMS            : 1476
REMARK   3   NUCLEIC ACID ATOMS       : 0
REMARK   3   HETEROGEN ATOMS          : 13
REMARK   3   SOLVENT ATOMS            : 146
REMARK   3
REMARK   3  B VALUES.
REMARK   3   FROM WILSON PLOT           (A**2) : 28.82
REMARK   3   MEAN B VALUE      (OVERALL, A**2) : 44.00
REMARK   3   OVERALL ANISOTROPIC B VALUE.
REMARK   3    B11 (A**2) : -4.75510
REMARK   3    B22 (A**2) : -4.75510
REMARK   3    B33 (A**2) : 9.51030
REMARK   3    B12 (A**2) : 0.00000
REMARK   3    B13 (A**2) : 0.00000
REMARK   3    B23 (A**2) : 0.00000
REMARK   3
REMARK   3  ESTIMATED COORDINATE ERROR.
REMARK   3   ESD FROM LUZZATI PLOT                    (A) : 0.26
REMARK   3   DPI (BLOW EQ-10) BASED ON R VALUE        (A) : 0.075
REMARK   3   DPI (BLOW EQ-9) BASED ON FREE R VALUE    (A) : 0.076
REMARK   3   DPI (CRUICKSHANK) BASED ON R VALUE       (A) : 0.071
REMARK   3   DPI (CRUICKSHANK) BASED ON FREE R VALUE  (A) : 0.073
REMARK   3
REMARK   3   REFERENCES: BLOW, D. (2002) ACTA CRYST D58, 792-797
REMARK   3               CRUICKSHANK, D.W.J. (1999) ACTA CRYST D55, 583-601
REMARK   3
REMARK   3  CORRELATION COEFFICIENTS.
REMARK   3   CORRELATION COEFFICIENT FO-FC      : 0.955
REMARK   3   CORRELATION COEFFICIENT FO-FC FREE : 0.945
REMARK   3
REMARK   3  X-RAY WEIGHT : 6.24
REMARK   3
REMARK   3  GEOMETRY FUNCTION.                                                  
REMARK   3   RESTRAINT LIBRARIES.                                               
REMARK   3    NUMBER OF LIBRARIES USED :   9                                    
REMARK   3    LIBRARY  1 : protgeo_eh99.dat (V1.6.4.20) 20220523  STANDARD      
REMARK   3                 AMINO ACID DICTIONARY. BONDS AND ANGLES FROM         
REMARK   3                 ENGH AND HUBER EH99. OTHER VALUES BASED ON           
REMARK   3                 PREVIOUS TNT OR TAKEN FROM CCP4. INCLUDES            
REMARK   3                 HYDROGEN ATOMS.                                      
REMARK   3    LIBRARY  2 : exoticaa.dat (V1.3.4.16) 20220523  COLLECTION        
REMARK   3                 OF NON-STANDARD AMINO ACIDS, MAINLY EH91             
REMARK   3                 WITHOUT IDEAL DISTANCE INFO                          
REMARK   3    LIBRARY  3 : nuclgeo.dat (V1.13.4.9) 20221011                     
REMARK   3    LIBRARY  4 : bcorrel.dat (V1.15.10.2) 20190616                    
REMARK   3    LIBRARY  5 : contact.dat (V1.15.12.10) 20191121                   
REMARK   3    LIBRARY  6 : idealdist_contact.dat (V1.3.4.14) 20230724           
REMARK   3                 IDEAL-DISTANCE CONTACT TERM DATA AS USED IN          
REMARK   3                 PROLSQ. VALUES USED HERE ARE BASEd ON DATA           
REMARK   3                 HARVESTING OF PDB AS OF 20190109                     
REMARK   3    LIBRARY  7 : restraints for LIG (unknown) from cif                
REMARK   3                 dictionary Z57493554.cif; generated by GRADE         
REMARK   3                 1.2.21 (Feb 03 2022) from SMILES C[N+]=1C=CC(C       
REMARK   3    LIBRARY  8 : restraints for DMS (DIMETHYL SULFOXIDE) from         
REMARK   3                 cif dictionary DMS.cif; generated by grade2          
REMARK   3                 version 1.1.0a7 from                                 
REMARK   3                 PDB_chemical_components_definition_file              
REMARK   3                 ftp://ftp.ebi.ac.uk/pub/databases/msd/pdbechem_v     
REMARK   3                 2/D/DMS/DMS.cif using RDKit 2021.03.4                
REMARK   3                 ((DatabaseID PDB-DMS))                               
REMARK   3    LIBRARY  9 : assume.dat (V1.9.4.3) 20221011                       
REMARK   3                                                                      
REMARK   3   NUMBER OF GEOMETRIC FUNCTION TERMS DEFINED : 15                    
REMARK   3   TERM                          COUNT    WEIGHT   FUNCTION.          
REMARK   3    BOND LENGTHS              :   1598 ;   2.00 ;  HARMONIC           
REMARK   3    BOND ANGLES               :   2180 ;   2.00 ;  HARMONIC           
REMARK   3    TORSION ANGLES            :    539 ;   2.00 ;  SINUSOIDAL         
REMARK   3    TRIGONAL CARBON PLANES    :   NULL ;   NULL ;  NULL               
REMARK   3    GENERAL PLANES            :    283 ;   5.00 ;  HARMONIC           
REMARK   3    ISOTROPIC THERMAL FACTORS :   1598 ;  10.00 ;  HARMONIC           
REMARK   3    BAD NON-BONDED CONTACTS   :   NULL ;   NULL ;  NULL               
REMARK   3    IMPROPER TORSIONS         :   NULL ;   NULL ;  NULL               
REMARK   3    PSEUDOROTATION ANGLES     :   NULL ;   NULL ;  NULL               
REMARK   3    CHIRAL IMPROPER TORSION   :    198 ;   5.00 ;  SEMIHARMONIC       
REMARK   3    SUM OF OCCUPANCIES        :   NULL ;   NULL ;  NULL               
REMARK   3    UTILITY DISTANCES         :   NULL ;   NULL ;  NULL               
REMARK   3    UTILITY ANGLES            :   NULL ;   NULL ;  NULL               
REMARK   3    UTILITY TORSION           :   NULL ;   NULL ;  NULL               
REMARK   3    IDEAL-DIST CONTACT TERM   :   1351 ;   4.00 ;  SEMIHARMONIC       
REMARK   3                                                                      
REMARK   3   RMS DEVIATIONS FROM IDEAL VALUES.                                  
REMARK   3   BOND LENGTHS                       (A) : 0.012                     
REMARK   3   BOND ANGLES                  (DEGREES) : 1.12                      
REMARK   3   PEPTIDE OMEGA TORSION ANGLES (DEGREES) : 4.29                      
REMARK   3   OTHER TORSION ANGLES         (DEGREES) : 15.42                     
REMARK   3                                                                      
REMARK   3   SIMILARITY.                                                        
REMARK   3    NCS.                                                              
REMARK   3     NCS METHOD: NONE                                                 
REMARK   3    TARGET RESTRAINTS.                                                
REMARK   3     TARGET REPRESENTATION : NONE                                     
REMARK   3     TARGET STRUCTURE : NULL                                          
REMARK   3                                                                      
REMARK   3  TLS DETAILS.                                                        
REMARK   3   NUMBER OF TLS GROUPS  :            2                               
REMARK   3                                                                      
REMARK   3   TLS GROUP :            1                                           
REMARK   3    SET : { A|* }                                                     
REMARK   3    ORIGIN FOR THE GROUP (A):  -14.0516   -1.2636  -19.5353           
REMARK   3    T TENSOR                                                          
REMARK   3     T11:    0.0327 T22:    0.0001                                    
REMARK   3     T33:   -0.1434 T12:    0.1256                                    
REMARK   3     T13:    0.0917 T23:    0.0620                                    
REMARK   3    L TENSOR                                                          
REMARK   3     L11:    2.5160 L22:    3.0711                                    
REMARK   3     L33:    2.6357 L12:   -1.4961                                    
REMARK   3     L13:    0.7907 L23:    0.3353                                    
REMARK   3    S TENSOR                                                          
REMARK   3     S11:    0.3842 S12:    0.3519 S13:    0.2182                     
REMARK   3     S21:   -0.5116 S22:   -0.3168 S23:   -0.2272                     
REMARK   3     S31:   -0.0434 S32:    0.4784 S33:   -0.0675                     
REMARK   3                                                                      
REMARK   3   TLS GROUP :            2                                           
REMARK   3    SET : { B|* }                                                     
REMARK   3    ORIGIN FOR THE GROUP (A):  -18.6684    1.3605  -15.5006           
REMARK   3    T TENSOR                                                          
REMARK   3     T11:    0.0872 T22:   -0.0109                                    
REMARK   3     T33:   -0.0245 T12:    0.1056                                    
REMARK   3     T13:    0.0175 T23:    0.0188                                    
REMARK   3    L TENSOR                                                          
REMARK   3     L11:    1.1760 L22:    1.1572                                    
REMARK   3     L33:    1.5988 L12:   -0.8743                                    
REMARK   3     L13:    0.5825 L23:   -0.0079                                    
REMARK   3    S TENSOR                                                          
REMARK   3     S11:    0.2553 S12:    0.1035 S13:    0.0399                     
REMARK   3     S21:   -0.1954 S22:   -0.2498 S23:    0.0518                     
REMARK   3     S31:   -0.0437 S32:    0.1645 S33:   -0.0055                     
REMARK   3                                                                      
REMARK   3  REFINEMENT NOTES.                                                   
REMARK   3   NUMBER OF REFINEMENT NOTES :   1                                   
REMARK   3   NOTE   1 : IDEAL-DIST CONTACT TERM CONTACT SETUP. ALL ATOMS        
REMARK   3               HAVE CCP4 ATOM TYPE FROM LIBRARY                       
REMARK   3
REMARK   3  OTHER REFINEMENT REMARKS: NULL
REMARK   3
REMARK 290                                                            
REMARK 290 CRYSTALLOGRAPHIC SYMMETRY                                  
REMARK 290 SYMMETRY OPERATORS FOR SPACE GROUP: P 43 2 2               
REMARK 290                                                            
REMARK 290      SYMOP   SYMMETRY                                      
REMARK 290     NNNMMM   OPERATOR                                      
REMARK 290       1555   X,Y,Z                                         
REMARK 290       2555   -X,-Y,1/2+Z                                   
REMARK 290       3555   -Y,X,3/4+Z                                    
REMARK 290       4555   Y,-X,1/4+Z                                    
REMARK 290       5555   -X,Y,-Z                                       
REMARK 290       6555   X,-Y,1/2-Z                                    
REMARK 290       7555   Y,X,1/4-Z                                     
REMARK 290       8555   -Y,-X,3/4-Z                                   
REMARK 290                                                            
REMARK 290     WHERE NNN -> OPERATOR NUMBER                           
REMARK 290           MMM -> TRANSLATION VECTOR                        
REMARK 290                                                            
REMARK 290 CRYSTALLOGRAPHIC SYMMETRY TRANSFORMATIONS                  
REMARK 290 THE FOLLOWING TRANSFORMATIONS OPERATE ON THE ATOM/HETATM   
REMARK 290 RECORDS IN THIS ENTRY TO PRODUCE CRYSTALLOGRAPHICALLY      
REMARK 290 RELATED MOLECULES.                                         
REMARK 290   SMTRY1   1  1.000000  0.000000  0.000000        0.00000
REMARK 290   SMTRY2   1  0.000000  1.000000  0.000000        0.00000
REMARK 290   SMTRY3   1  0.000000  0.000000  1.000000        0.00000
REMARK 290   SMTRY1   2 -1.000000  0.000000  0.000000        0.00000
REMARK 290   SMTRY2   2  0.000000 -1.000000  0.000000        0.00000
REMARK 290   SMTRY3   2  0.000000  0.000000  1.000000      108.51750
REMARK 290   SMTRY1   3  0.000000 -1.000000  0.000000        0.00000
REMARK 290   SMTRY2   3  1.000000  0.000000  0.000000        0.00000
REMARK 290   SMTRY3   3  0.000000  0.000000  1.000000      162.77625
REMARK 290   SMTRY1   4  0.000000  1.000000  0.000000        0.00000
REMARK 290   SMTRY2   4 -1.000000  0.000000  0.000000        0.00000
REMARK 290   SMTRY3   4  0.000000  0.000000  1.000000       54.25875
REMARK 290   SMTRY1   5 -1.000000  0.000000  0.000000        0.00000
REMARK 290   SMTRY2   5  0.000000  1.000000  0.000000        0.00000
REMARK 290   SMTRY3   5  0.000000  0.000000 -1.000000        0.00000
REMARK 290   SMTRY1   6  1.000000  0.000000  0.000000        0.00000
REMARK 290   SMTRY2   6  0.000000 -1.000000  0.000000        0.00000
REMARK 290   SMTRY3   6  0.000000  0.000000 -1.000000      108.51750
REMARK 290   SMTRY1   7  0.000000  1.000000  0.000000        0.00000
REMARK 290   SMTRY2   7  1.000000  0.000000  0.000000        0.00000
REMARK 290   SMTRY3   7  0.000000  0.000000 -1.000000       54.25875
REMARK 290   SMTRY1   8  0.000000 -1.000000  0.000000        0.00000
REMARK 290   SMTRY2   8 -1.000000  0.000000  0.000000        0.00000
REMARK 290   SMTRY3   8  0.000000  0.000000 -1.000000      162.77625
REMARK 290                                                            
REMARK 290 REMARK: NULL                                               
CRYST1   42.582   42.582  217.035  90.00  90.00  90.00 P 43 2 2                 


$$$$
Zx0553a_ligand
  PyMOL3.0          3D                             0

  9  9  0  0  0  0  0  0  0  0999 V2000
  -10.7130    4.3000  -18.2360 C   0  0  0  0  0  0  0  0  0  0  0  0
  -11.7880    4.1940  -18.6020 N   0  0  0  0  0  0  0  0  0  0  0  0
   -9.3680    4.4270  -17.7350 C   0  0  0  0  0  0  0  0  0  0  0  0
   -6.8260    4.7890  -16.7690 N   0  3  0  0  0  0  0  0  0  0  0  0
   -8.3200    4.7130  -18.6050 C   0  0  0  0  0  0  0  0  0  0  0  0
   -7.0610    4.8980  -18.0940 C   0  0  0  0  0  0  0  0  0  0  0  0
   -9.1110    4.3090  -16.3720 C   0  0  0  0  0  0  0  0  0  0  0  0
   -7.8290    4.4910  -15.9170 C   0  0  0  0  0  0  0  0  0  0  0  0
   -5.4590    5.0020  -16.2480 C   0  0  0  0  0  0  0  0  0  0  0  0
  1  3  1  0  0  0  0
  1  2  3  0  0  0  0
  3  5  4  0  0  0  0
  3  7  4  0  0  0  0
  4  9  1  0  0  0  0
  5  6  4  0  0  0  0
  4  6  4  0  0  0  0
  7  8  4  0  0  0  0
  4  8  4  0  0  0  0
M  END
>  <pdb_header>
COMPND    XX01ZVNS2B-x0553_B_301_XX01ZVNS2B-x1291+B+301+1


$$$$
Zx0559a
  PyMOL3.0          3D                             0

  7  7  0  0  0  0  0  0  0  0999 V2000
   -6.2550    5.0140  -18.2170 N   0  0  0  0  0  0  0  0  0  0  0  0
  -10.7670    4.2430  -18.1640 C   0  0  0  0  0  0  0  0  0  0  0  0
   -9.7060    4.2880  -18.9200 C   0  0  0  0  0  0  0  0  0  0  0  0
   -8.1460    4.8590  -17.0950 N   0  0  0  0  0  0  0  0  0  0  0  0
   -8.4010    4.5980  -18.4340 C   0  0  0  0  0  0  0  0  0  0  0  0
   -7.2240    4.6920  -19.1230 C   0  0  0  0  0  0  0  0  0  0  0  0
   -6.8470    5.1040  -17.0230 C   0  0  0  0  0  0  0  0  0  0  0  0
  1  6  4  0  0  0  0
  2  3  1  0  0  0  0
  3  5  1  0  0  0  0
  4  7  4  0  0  0  0
  4  5  4  0  0  0  0
  5  6  4  0  0  0  0
  1  7  4  0  0  0  0
M  END
>  <pdb_header>
HEADER    ----                                    18-MAY-23                     
TITLE     ---                                                                   
EXPDTA    X-RAY DIFFRACTION                                                     
REMARK --------------------- added by autoBUSTER ---------------------------------START
REMARK run at   = Fri Sep 29 18:07:48 BST 2023
REMARK     in   = /dls/labxchem/data/lb32627/lb32627-65/processing/analysis/model_building/XX01ZVNS2B-x0559
REMARK     user = kyf22269
REMARK     cmd  = \
REMARK            /dls_sw/apps/GPhL/BUSTER/20230726/autoBUSTER/bin/linux64/refine \
REMARK            -p \
REMARK            /dls/labxchem/data/lb32627/lb32627-65/processing/analysis/model_building/XX01ZVNS2B-x0559/cootOut/Refi
REMARK            -m \
REMARK            /dls/labxchem/data/lb32627/lb32627-65/processing/analysis/model_building/XX01ZVNS2B-x0559/XX01ZVNS2B-x
REMARK            -l \
REMARK            /dls/labxchem/data/lb32627/lb32627-65/processing/analysis/model_building/XX01ZVNS2B-x0559/Z1198149728.
REMARK            -autoncs -M TLSbasic -d Refine_7
REMARK Files used:
REMARK   PDB              = Refine_7/pdbchk.pdb
REMARK   MTZ              = /dls/labxchem/data/lb32627/lb32627-65/processing/analysis/model_building/XX01ZVNS2B-x0559/XX
REMARK output written to subdirectory = Refine_7
REMARK best refinement for F,SIGF with R/Rfree 0.2125/0.2371
REMARK header records are copied from input PDB file (apart from REMARK 3!)
REMARK --------------------- added by autoBUSTER -----------------------------------END
REMARK --------------------- added by autoBUSTER -------------------------------
REMARK run at   = Thu Jun 15 11:34:14 BST 2023                                  
REMARK     in   = /dls/labxchem/data/lb32627/lb32627-65/processing/analysis/mode
REMARK     user = xau79897                                                      
REMARK     cmd  = \                                                             
REMARK            /dls_sw/apps/GPhL/BUSTER/20230614/autoBUSTER/bin/linux64/refin
REMARK            -p \                                                          
REMARK            /dls/labxchem/data/lb32627/lb32627-65/processing/analysis/mode
REMARK            -m \                                                          
REMARK            /dls/labxchem/data/lb32627/lb32627-65/processing/analysis/mode
REMARK            -l \                                                          
REMARK            /dls/labxchem/data/lb32627/lb32627-65/processing/analysis/mode
REMARK            -autoncs -M TLSbasic StopOnGellySanityCheckError=no -d \      
REMARK            Refine_6                                                      
REMARK Files used:                                                              
REMARK   PDB              = Refine_6/pdbchk.pdb                                 
REMARK   MTZ              = /dls/labxchem/data/lb32627/lb32627-65/processing/ana
REMARK output written to subdirectory = Refine_6                                
REMARK best refinement for F,SIGF with R/Rfree 0.2129/0.2379                    
REMARK header records are copied from input PDB file (apart from REMARK 3!)     
REMARK --------------------- added by autoBUSTER -------------------------------
REMARK --------------------- added by autoBUSTER -------------------------------
REMARK run at   = Tue May 30 00:41:15 BST 2023                                  
REMARK     in   = /dls/labxchem/data/lb32627/lb32627-65/processing/analysis/mode
REMARK     user = xau79897                                                      
REMARK     cmd  = \                                                             
REMARK            /dls_sw/apps/GPhL/BUSTER/20230217/autoBUSTER/bin/linux64/refin
REMARK            -p \                                                          
REMARK            /dls/labxchem/data/lb32627/lb32627-65/processing/analysis/mode
REMARK            -m \                                                          
REMARK            /dls/labxchem/data/lb32627/lb32627-65/processing/analysis/mode
REMARK            -l \                                                          
REMARK            /dls/labxchem/data/lb32627/lb32627-65/processing/analysis/mode
REMARK            -autoncs -M TLSbasic -B user -Gelly gelly.dat \               
REMARK            StopOnGellySanityCheckError=no -d Refine_5                    
REMARK Files used:                                                              
REMARK   PDB              = Refine_5/pdbchk.pdb                                 
REMARK   MTZ              = /dls/labxchem/data/lb32627/lb32627-65/processing/ana
REMARK   Gelly commands       = /dls/labxchem/data/lb32627/lb32627-65/processing
REMARK output written to subdirectory = Refine_5                                
REMARK best refinement for F,SIGF with R/Rfree 0.2127/0.2390                    
REMARK header records are copied from input PDB file (apart from REMARK 3!)     
REMARK --------------------- added by autoBUSTER -------------------------------
REMARK --------------------- added by autoBUSTER -------------------------------
REMARK run at   = Wed May 24 14:02:15 BST 2023                                  
REMARK     in   = /dls/labxchem/data/lb32627/lb32627-65/processing/analysis/mode
REMARK     user = xau79897                                                      
REMARK     cmd  = \                                                             
REMARK            /dls_sw/apps/GPhL/BUSTER/20230217/autoBUSTER/bin/linux64/refin
REMARK            -p \                                                          
REMARK            /dls/labxchem/data/lb32627/lb32627-65/processing/analysis/mode
REMARK            -m \                                                          
REMARK            /dls/labxchem/data/lb32627/lb32627-65/processing/analysis/mode
REMARK            -l \                                                          
REMARK            /dls/labxchem/data/lb32627/lb32627-65/processing/analysis/mode
REMARK            -autoncs -M TLSbasic -WAT -B user -Gelly gelly.dat \          
REMARK            StopOnGellySanityCheckError=no -d Refine_4                    
REMARK Files used:                                                              
REMARK   PDB              = Refine_4/pdbchk.pdb                                 
REMARK   MTZ              = /dls/labxchem/data/lb32627/lb32627-65/processing/ana
REMARK   Gelly commands       = /dls/labxchem/data/lb32627/lb32627-65/processing
REMARK output written to subdirectory = Refine_4                                
REMARK best refinement for F,SIGF with R/Rfree 0.2124/0.2415                    
REMARK header records are copied from input PDB file (apart from REMARK 3!)     
REMARK --------------------- added by autoBUSTER -------------------------------
REMARK --------------------- added by autoBUSTER -------------------------------
REMARK run at   = Tue May 23 17:07:49 BST 2023                                  
REMARK     in   = /dls/labxchem/data/lb32627/lb32627-65/processing/analysis/mode
REMARK     user = xau79897                                                      
REMARK     cmd  = \                                                             
REMARK            /dls_sw/apps/GPhL/BUSTER/20230217/autoBUSTER/bin/linux64/refin
REMARK            -p \                                                          
REMARK            /dls/labxchem/data/lb32627/lb32627-65/processing/analysis/mode
REMARK            -m \                                                          
REMARK            /dls/labxchem/data/lb32627/lb32627-65/processing/analysis/mode
REMARK            -l \                                                          
REMARK            /dls/labxchem/data/lb32627/lb32627-65/processing/analysis/mode
REMARK            -autoncs -M TLSbasic -d Refine_3                              
REMARK Files used:                                                              
REMARK   PDB              = Refine_3/pdbchk.pdb                                 
REMARK   MTZ              = /dls/labxchem/data/lb32627/lb32627-65/processing/ana
REMARK output written to subdirectory = Refine_3                                
REMARK best refinement for F,SIGF with R/Rfree 0.2258/0.2460                    
REMARK header records are copied from input PDB file (apart from REMARK 3!)     
REMARK --------------------- added by autoBUSTER -------------------------------
REMARK   2                                                            
REMARK   2 RESOLUTION.    1.38 ANGSTROMS.
REMARK   3
REMARK   3 REFINEMENT.
REMARK   3   PROGRAM     : BUSTER 2.10.4 (26-JUL-2023)
REMARK   3   AUTHORS     : BRICOGNE,BLANC,BRANDL,FLENSBURG,KELLER,
REMARK   3               : PACIOREK,ROVERSI,SHARFF,SMART,VONRHEIN,WOMACK;
REMARK   3               : MATTHEWS,TEN EYCK,TRONRUD
REMARK   3
REMARK   3  DATA USED IN REFINEMENT.
REMARK   3   RESOLUTION RANGE HIGH (ANGSTROMS) : 1.380
REMARK   3   RESOLUTION RANGE LOW  (ANGSTROMS) : 15.60
REMARK   3   DATA CUTOFF            (SIGMA(F)) : 0.000
REMARK   3   COMPLETENESS FOR RANGE        (%) : 91.0
REMARK   3   NUMBER OF REFLECTIONS             : 38779
REMARK   3
REMARK   3  FIT TO DATA USED IN REFINEMENT.
REMARK   3   CROSS-VALIDATION METHOD          : THROUGHOUT
REMARK   3   FREE R VALUE TEST SET SELECTION  : RANDOM
REMARK   3   R VALUE     (WORKING + TEST SET) : 0.2137
REMARK   3   R VALUE            (WORKING SET) : 0.2124
REMARK   3   FREE R VALUE                     : 0.2371
REMARK   3   FREE R VALUE TEST SET SIZE   (%) : 5.050
REMARK   3   FREE R VALUE TEST SET COUNT      : 1960
REMARK   3   ESTIMATED ERROR OF FREE R VALUE  : NULL
REMARK   3
REMARK   3  FIT IN THE HIGHEST RESOLUTION BIN.
REMARK   3   TOTAL NUMBER OF BINS USED           : 51
REMARK   3   BIN RESOLUTION RANGE HIGH       (A) : 1.38
REMARK   3   BIN RESOLUTION RANGE LOW        (A) : 1.43
REMARK   3   BIN COMPLETENESS (WORKING+TEST) (%) : 19.00
REMARK   3   REFLECTIONS IN BIN   (WORKING+TEST) : 776
REMARK   3   BIN R VALUE          (WORKING+TEST) : 0.5221
REMARK   3   REFLECTIONS IN BIN    (WORKING SET) : 733
REMARK   3   BIN R VALUE           (WORKING SET) : 0.5209
REMARK   3   BIN FREE R VALUE                    : 0.5419
REMARK   3   BIN FREE R VALUE TEST SET SIZE  (%) : 5.54
REMARK   3   BIN FREE R VALUE TEST SET COUNT     : 43
REMARK   3   ESTIMATED ERROR OF BIN FREE R VALUE : NULL
REMARK   3
REMARK   3  NUMBER OF NON-HYDROGEN ATOMS USED IN REFINEMENT.
REMARK   3   PROTEIN ATOMS            : 1476
REMARK   3   NUCLEIC ACID ATOMS       : 0
REMARK   3   HETEROGEN ATOMS          : 15
REMARK   3   SOLVENT ATOMS            : 160
REMARK   3
REMARK   3  B VALUES.
REMARK   3   FROM WILSON PLOT           (A**2) : 29.61
REMARK   3   MEAN B VALUE      (OVERALL, A**2) : 43.91
REMARK   3   OVERALL ANISOTROPIC B VALUE.
REMARK   3    B11 (A**2) : -4.48960
REMARK   3    B22 (A**2) : -4.48960
REMARK   3    B33 (A**2) : 8.97920
REMARK   3    B12 (A**2) : 0.00000
REMARK   3    B13 (A**2) : 0.00000
REMARK   3    B23 (A**2) : 0.00000
REMARK   3
REMARK   3  ESTIMATED COORDINATE ERROR.
REMARK   3   ESD FROM LUZZATI PLOT                    (A) : 0.26
REMARK   3   DPI (BLOW EQ-10) BASED ON R VALUE        (A) : 0.075
REMARK   3   DPI (BLOW EQ-9) BASED ON FREE R VALUE    (A) : 0.074
REMARK   3   DPI (CRUICKSHANK) BASED ON R VALUE       (A) : 0.070
REMARK   3   DPI (CRUICKSHANK) BASED ON FREE R VALUE  (A) : 0.071
REMARK   3
REMARK   3   REFERENCES: BLOW, D. (2002) ACTA CRYST D58, 792-797
REMARK   3               CRUICKSHANK, D.W.J. (1999) ACTA CRYST D55, 583-601
REMARK   3
REMARK   3  CORRELATION COEFFICIENTS.
REMARK   3   CORRELATION COEFFICIENT FO-FC      : 0.959
REMARK   3   CORRELATION COEFFICIENT FO-FC FREE : 0.952
REMARK   3
REMARK   3  X-RAY WEIGHT : 6.06
REMARK   3
REMARK   3  GEOMETRY FUNCTION.                                                  
REMARK   3   RESTRAINT LIBRARIES.                                               
REMARK   3    NUMBER OF LIBRARIES USED :   9                                    
REMARK   3    LIBRARY  1 : protgeo_eh99.dat (V1.6.4.20) 20220523  STANDARD      
REMARK   3                 AMINO ACID DICTIONARY. BONDS AND ANGLES FROM         
REMARK   3                 ENGH AND HUBER EH99. OTHER VALUES BASED ON           
REMARK   3                 PREVIOUS TNT OR TAKEN FROM CCP4. INCLUDES            
REMARK   3                 HYDROGEN ATOMS.                                      
REMARK   3    LIBRARY  2 : exoticaa.dat (V1.3.4.16) 20220523  COLLECTION        
REMARK   3                 OF NON-STANDARD AMINO ACIDS, MAINLY EH91             
REMARK   3                 WITHOUT IDEAL DISTANCE INFO                          
REMARK   3    LIBRARY  3 : nuclgeo.dat (V1.13.4.9) 20221011                     
REMARK   3    LIBRARY  4 : bcorrel.dat (V1.15.10.2) 20190616                    
REMARK   3    LIBRARY  5 : contact.dat (V1.15.12.10) 20191121                   
REMARK   3    LIBRARY  6 : idealdist_contact.dat (V1.3.4.14) 20230724           
REMARK   3                 IDEAL-DISTANCE CONTACT TERM DATA AS USED IN          
REMARK   3                 PROLSQ. VALUES USED HERE ARE BASEd ON DATA           
REMARK   3                 HARVESTING OF PDB AS OF 20190109                     
REMARK   3    LIBRARY  7 : restraints for LIG (unknown) from cif                
REMARK   3                 dictionary Z1198149728.cif; generated by GRADE       
REMARK   3                 1.2.21 (Feb 03 2022) from SMILES C=CC1=CNC=N1        
REMARK   3                 using MOGUL 1.8.5(274361), CSD as541be, with         
REMARK   3                 quantum mechanics RM1                                
REMARK   3    LIBRARY  8 : restraints for DMS (DIMETHYL SULFOXIDE) from         
REMARK   3                 cif dictionary DMS.cif; generated by grade2          
REMARK   3                 version 1.1.0a7 from                                 
REMARK   3                 PDB_chemical_components_definition_file              
REMARK   3                 ftp://ftp.ebi.ac.uk/pub/databases/msd/pdbechem_v     
REMARK   3                 2/D/DMS/DMS.cif using RDKit 2021.03.4                
REMARK   3                 ((DatabaseID PDB-DMS))                               
REMARK   3    LIBRARY  9 : assume.dat (V1.9.4.3) 20221011                       
REMARK   3                                                                      
REMARK   3   NUMBER OF GEOMETRIC FUNCTION TERMS DEFINED : 15                    
REMARK   3   TERM                          COUNT    WEIGHT   FUNCTION.          
REMARK   3    BOND LENGTHS              :   1591 ;   2.00 ;  HARMONIC           
REMARK   3    BOND ANGLES               :   2167 ;   2.00 ;  HARMONIC           
REMARK   3    TORSION ANGLES            :    536 ;   2.00 ;  SINUSOIDAL         
REMARK   3    TRIGONAL CARBON PLANES    :   NULL ;   NULL ;  NULL               
REMARK   3    GENERAL PLANES            :    279 ;   5.00 ;  HARMONIC           
REMARK   3    ISOTROPIC THERMAL FACTORS :   1591 ;  10.00 ;  HARMONIC           
REMARK   3    BAD NON-BONDED CONTACTS   :   NULL ;   NULL ;  NULL               
REMARK   3    IMPROPER TORSIONS         :   NULL ;   NULL ;  NULL               
REMARK   3    PSEUDOROTATION ANGLES     :   NULL ;   NULL ;  NULL               
REMARK   3    CHIRAL IMPROPER TORSION   :    196 ;   5.00 ;  SEMIHARMONIC       
REMARK   3    SUM OF OCCUPANCIES        :   NULL ;   NULL ;  NULL               
REMARK   3    UTILITY DISTANCES         :   NULL ;   NULL ;  NULL               
REMARK   3    UTILITY ANGLES            :   NULL ;   NULL ;  NULL               
REMARK   3    UTILITY TORSION           :   NULL ;   NULL ;  NULL               
REMARK   3    IDEAL-DIST CONTACT TERM   :   1380 ;   4.00 ;  SEMIHARMONIC       
REMARK   3                                                                      
REMARK   3   RMS DEVIATIONS FROM IDEAL VALUES.                                  
REMARK   3   BOND LENGTHS                       (A) : 0.012                     
REMARK   3   BOND ANGLES                  (DEGREES) : 1.10                      
REMARK   3   PEPTIDE OMEGA TORSION ANGLES (DEGREES) : 4.30                      
REMARK   3   OTHER TORSION ANGLES         (DEGREES) : 15.42                     
REMARK   3                                                                      
REMARK   3   SIMILARITY.                                                        
REMARK   3    NCS.                                                              
REMARK   3     NCS METHOD: NONE                                                 
REMARK   3    TARGET RESTRAINTS.                                                
REMARK   3     TARGET REPRESENTATION : NONE                                     
REMARK   3     TARGET STRUCTURE : NULL                                          
REMARK   3                                                                      
REMARK   3  TLS DETAILS.                                                        
REMARK   3   NUMBER OF TLS GROUPS  :            2                               
REMARK   3                                                                      
REMARK   3   TLS GROUP :            1                                           
REMARK   3    SET : { A|* }                                                     
REMARK   3    ORIGIN FOR THE GROUP (A):  -13.7358   -1.2242  -19.3254           
REMARK   3    T TENSOR                                                          
REMARK   3     T11:    0.0212 T22:    0.0149                                    
REMARK   3     T33:   -0.1437 T12:    0.1172                                    
REMARK   3     T13:    0.0971 T23:    0.0689                                    
REMARK   3    L TENSOR                                                          
REMARK   3     L11:    2.4333 L22:    2.9689                                    
REMARK   3     L33:    2.7263 L12:   -1.4455                                    
REMARK   3     L13:    1.0126 L23:    0.4630                                    
REMARK   3    S TENSOR                                                          
REMARK   3     S11:    0.3799 S12:    0.3571 S13:    0.2299                     
REMARK   3     S21:   -0.4660 S22:   -0.3006 S23:   -0.2359                     
REMARK   3     S31:   -0.0247 S32:    0.4998 S33:   -0.0793                     
REMARK   3                                                                      
REMARK   3   TLS GROUP :            2                                           
REMARK   3    SET : { B|* }                                                     
REMARK   3    ORIGIN FOR THE GROUP (A):  -18.6602    1.3824  -15.4746           
REMARK   3    T TENSOR                                                          
REMARK   3     T11:    0.0808 T22:   -0.0082                                    
REMARK   3     T33:   -0.0305 T12:    0.0978                                    
REMARK   3     T13:    0.0240 T23:    0.0222                                    
REMARK   3    L TENSOR                                                          
REMARK   3     L11:    1.2010 L22:    1.0958                                    
REMARK   3     L33:    1.7171 L12:   -0.8435                                    
REMARK   3     L13:    0.6479 L23:    0.0325                                    
REMARK   3    S TENSOR                                                          
REMARK   3     S11:    0.2254 S12:    0.0985 S13:    0.0573                     
REMARK   3     S21:   -0.1609 S22:   -0.2238 S23:    0.0434                     
REMARK   3     S31:   -0.0425 S32:    0.1781 S33:   -0.0017                     
REMARK   3                                                                      
REMARK   3  REFINEMENT NOTES.                                                   
REMARK   3   NUMBER OF REFINEMENT NOTES :   1                                   
REMARK   3   NOTE   1 : IDEAL-DIST CONTACT TERM CONTACT SETUP. ALL ATOMS        
REMARK   3               HAVE CCP4 ATOM TYPE FROM LIBRARY                       
REMARK   3
REMARK   3  OTHER REFINEMENT REMARKS: NULL
REMARK   3
REMARK 290                                                            
REMARK 290 CRYSTALLOGRAPHIC SYMMETRY                                  
REMARK 290 SYMMETRY OPERATORS FOR SPACE GROUP: P 43 2 2               
REMARK 290                                                            
REMARK 290      SYMOP   SYMMETRY                                      
REMARK 290     NNNMMM   OPERATOR                                      
REMARK 290       1555   X,Y,Z                                         
REMARK 290       2555   -X,-Y,1/2+Z                                   
REMARK 290       3555   -Y,X,3/4+Z                                    
REMARK 290       4555   Y,-X,1/4+Z                                    
REMARK 290       5555   -X,Y,-Z                                       
REMARK 290       6555   X,-Y,1/2-Z                                    
REMARK 290       7555   Y,X,1/4-Z                                     
REMARK 290       8555   -Y,-X,3/4-Z                                   
REMARK 290                                                            
REMARK 290     WHERE NNN -> OPERATOR NUMBER                           
REMARK 290           MMM -> TRANSLATION VECTOR                        
REMARK 290                                                            
REMARK 290 CRYSTALLOGRAPHIC SYMMETRY TRANSFORMATIONS                  
REMARK 290 THE FOLLOWING TRANSFORMATIONS OPERATE ON THE ATOM/HETATM   
REMARK 290 RECORDS IN THIS ENTRY TO PRODUCE CRYSTALLOGRAPHICALLY      
REMARK 290 RELATED MOLECULES.                                         
REMARK 290   SMTRY1   1  1.000000  0.000000  0.000000        0.00000
REMARK 290   SMTRY2   1  0.000000  1.000000  0.000000        0.00000
REMARK 290   SMTRY3   1  0.000000  0.000000  1.000000        0.00000
REMARK 290   SMTRY1   2 -1.000000  0.000000  0.000000        0.00000
REMARK 290   SMTRY2   2  0.000000 -1.000000  0.000000        0.00000
REMARK 290   SMTRY3   2  0.000000  0.000000  1.000000      108.38850
REMARK 290   SMTRY1   3  0.000000 -1.000000  0.000000        0.00000
REMARK 290   SMTRY2   3  1.000000  0.000000  0.000000        0.00000
REMARK 290   SMTRY3   3  0.000000  0.000000  1.000000      162.58275
REMARK 290   SMTRY1   4  0.000000  1.000000  0.000000        0.00000
REMARK 290   SMTRY2   4 -1.000000  0.000000  0.000000        0.00000
REMARK 290   SMTRY3   4  0.000000  0.000000  1.000000       54.19425
REMARK 290   SMTRY1   5 -1.000000  0.000000  0.000000        0.00000
REMARK 290   SMTRY2   5  0.000000  1.000000  0.000000        0.00000
REMARK 290   SMTRY3   5  0.000000  0.000000 -1.000000        0.00000
REMARK 290   SMTRY1   6  1.000000  0.000000  0.000000        0.00000
REMARK 290   SMTRY2   6  0.000000 -1.000000  0.000000        0.00000
REMARK 290   SMTRY3   6  0.000000  0.000000 -1.000000      108.38850
REMARK 290   SMTRY1   7  0.000000  1.000000  0.000000        0.00000
REMARK 290   SMTRY2   7  1.000000  0.000000  0.000000        0.00000
REMARK 290   SMTRY3   7  0.000000  0.000000 -1.000000       54.19425
REMARK 290   SMTRY1   8  0.000000 -1.000000  0.000000        0.00000
REMARK 290   SMTRY2   8 -1.000000  0.000000  0.000000        0.00000
REMARK 290   SMTRY3   8  0.000000  0.000000 -1.000000      162.58275
REMARK 290                                                            
REMARK 290 REMARK: NULL                                               
CRYST1   42.641   42.641  216.777  90.00  90.00  90.00 P 43 2 2                 


$$$$
Zx0559a_ligand
  PyMOL3.0          3D                             0

  7  7  0  0  0  0  0  0  0  0999 V2000
  -10.7670    4.2430  -18.1640 C   0  0  0  0  0  0  0  0  0  0  0  0
   -8.1460    4.8590  -17.0950 N   0  0  0  0  0  0  0  0  0  0  0  0
   -9.7060    4.2880  -18.9200 C   0  0  0  0  0  0  0  0  0  0  0  0
   -6.2550    5.0140  -18.2170 N   0  0  0  0  0  0  0  0  0  0  0  0
   -8.4010    4.5980  -18.4340 C   0  0  0  0  0  0  0  0  0  0  0  0
   -6.8470    5.1040  -17.0230 C   0  0  0  0  0  0  0  0  0  0  0  0
   -7.2240    4.6920  -19.1230 C   0  0  0  0  0  0  0  0  0  0  0  0
  1  3  1  0  0  0  0
  2  6  4  0  0  0  0
  3  5  1  0  0  0  0
  4  7  4  0  0  0  0
  2  5  4  0  0  0  0
  5  7  4  0  0  0  0
  4  6  4  0  0  0  0
M  END
>  <pdb_header>
COMPND    XX01ZVNS2B-x0559_B_301_XX01ZVNS2B-x1291+B+301+1


$$$$
Zx0589a
  PyMOL3.0          3D                             0

  8  8  0  0  0  0  0  0  0  0999 V2000
   -7.8120    4.8440  -15.9910 N   0  3  0  0  0  0  0  0  0  0  0  0
   -7.6870    4.9960  -14.5250 C   0  0  0  0  0  0  0  0  0  0  0  0
   -6.7420    5.0780  -16.7800 C   0  0  0  0  0  0  0  0  0  0  0  0
   -6.8420    4.9400  -18.1470 C   0  0  0  0  0  0  0  0  0  0  0  0
   -8.0460    4.5590  -18.7140 C   0  0  0  0  0  0  0  0  0  0  0  0
   -9.1180    4.3370  -17.8780 C   0  0  0  0  0  0  0  0  0  0  0  0
   -9.0020    4.4780  -16.5130 C   0  0  0  0  0  0  0  0  0  0  0  0
  -10.8080    3.8620  -18.6040 Br  0  0  0  0  0  0  0  0  0  0  0  0
  1  2  1  0  0  0  0
  1  3  4  0  0  0  0
  3  4  4  0  0  0  0
  4  5  4  0  0  0  0
  5  6  4  0  0  0  0
  6  7  4  0  0  0  0
  1  7  4  0  0  0  0
  6  8  1  0  0  0  0
M  END
>  <pdb_header>
HEADER    ----                                    18-MAY-23                     
TITLE     ---                                                                   
EXPDTA    X-RAY DIFFRACTION                                                     
REMARK --------------------- added by autoBUSTER ---------------------------------START
REMARK run at   = Fri Sep 29 18:09:06 BST 2023
REMARK     in   = /dls/labxchem/data/lb32627/lb32627-65/processing/analysis/model_building/XX01ZVNS2B-x0589
REMARK     user = kyf22269
REMARK     cmd  = \
REMARK            /dls_sw/apps/GPhL/BUSTER/20230726/autoBUSTER/bin/linux64/refine \
REMARK            -p \
REMARK            /dls/labxchem/data/lb32627/lb32627-65/processing/analysis/model_building/XX01ZVNS2B-x0589/cootOut/Refi
REMARK            -m \
REMARK            /dls/labxchem/data/lb32627/lb32627-65/processing/analysis/model_building/XX01ZVNS2B-x0589/XX01ZVNS2B-x
REMARK            -l \
REMARK            /dls/labxchem/data/lb32627/lb32627-65/processing/analysis/model_building/XX01ZVNS2B-x0589/Z1269184291.
REMARK            -autoncs -M TLSbasic -d Refine_11
REMARK Files used:
REMARK   PDB              = Refine_11/pdbchk.pdb
REMARK   MTZ              = /dls/labxchem/data/lb32627/lb32627-65/processing/analysis/model_building/XX01ZVNS2B-x0589/XX
REMARK output written to subdirectory = Refine_11
REMARK best refinement for F,SIGF with R/Rfree 0.2230/0.2501
REMARK header records are copied from input PDB file (apart from REMARK 3!)
REMARK --------------------- added by autoBUSTER -----------------------------------END
REMARK --------------------- added by autoBUSTER -------------------------------
REMARK run at   = Mon Jul 10 14:17:07 BST 2023                                  
REMARK     in   = /dls/labxchem/data/lb32627/lb32627-65/processing/analysis/mode
REMARK     user = xau79897                                                      
REMARK     cmd  = \                                                             
REMARK            /dls_sw/apps/GPhL/BUSTER/20230614/autoBUSTER/bin/linux64/refin
REMARK            -p \                                                          
REMARK            /dls/labxchem/data/lb32627/lb32627-65/processing/analysis/mode
REMARK            -m \                                                          
REMARK            /dls/labxchem/data/lb32627/lb32627-65/processing/analysis/mode
REMARK            -l \                                                          
REMARK            /dls/labxchem/data/lb32627/lb32627-65/processing/analysis/mode
REMARK            -autoncs -M TLSbasic -d Refine_10                             
REMARK Files used:                                                              
REMARK   PDB              = Refine_10/pdbchk.pdb                                
REMARK   MTZ              = /dls/labxchem/data/lb32627/lb32627-65/processing/ana
REMARK output written to subdirectory = Refine_10                               
REMARK best refinement for F,SIGF with R/Rfree 0.2231/0.2502                    
REMARK header records are copied from input PDB file (apart from REMARK 3!)     
REMARK --------------------- added by autoBUSTER -------------------------------
REMARK --------------------- added by autoBUSTER -------------------------------
REMARK run at   = Mon Jul 10 13:53:48 BST 2023                                  
REMARK     in   = /dls/labxchem/data/lb32627/lb32627-65/processing/analysis/mode
REMARK     user = xau79897                                                      
REMARK     cmd  = \                                                             
REMARK            /dls_sw/apps/GPhL/BUSTER/20230614/autoBUSTER/bin/linux64/refin
REMARK            -p \                                                          
REMARK            /dls/labxchem/data/lb32627/lb32627-65/processing/analysis/mode
REMARK            -m \                                                          
REMARK            /dls/labxchem/data/lb32627/lb32627-65/processing/analysis/mode
REMARK            -l \                                                          
REMARK            /dls/labxchem/data/lb32627/lb32627-65/processing/analysis/mode
REMARK            -autoncs -M TLSbasic -B user -Gelly gelly.dat -d Refine_9     
REMARK Files used:                                                              
REMARK   PDB              = Refine_9/pdbchk.pdb                                 
REMARK   MTZ              = /dls/labxchem/data/lb32627/lb32627-65/processing/ana
REMARK   Gelly commands       = /dls/labxchem/data/lb32627/lb32627-65/processing
REMARK output written to subdirectory = Refine_9                                
REMARK best refinement for F,SIGF with R/Rfree 0.2231/0.2500                    
REMARK header records are copied from input PDB file (apart from REMARK 3!)     
REMARK --------------------- added by autoBUSTER -------------------------------
REMARK --------------------- added by autoBUSTER -------------------------------
REMARK run at   = Mon Jul 10 13:07:40 BST 2023                                  
REMARK     in   = /dls/labxchem/data/lb32627/lb32627-65/processing/analysis/mode
REMARK     user = xau79897                                                      
REMARK     cmd  = \                                                             
REMARK            /dls_sw/apps/GPhL/BUSTER/20230614/autoBUSTER/bin/linux64/refin
REMARK            -p \                                                          
REMARK            /dls/labxchem/data/lb32627/lb32627-65/processing/analysis/mode
REMARK            -m \                                                          
REMARK            /dls/labxchem/data/lb32627/lb32627-65/processing/analysis/mode
REMARK            -l \                                                          
REMARK            /dls/labxchem/data/lb32627/lb32627-65/processing/analysis/mode
REMARK            -autoncs -M TLSbasic -B user -Gelly gelly.dat -d Refine_8     
REMARK Files used:                                                              
REMARK   PDB              = Refine_8/pdbchk.pdb                                 
REMARK   MTZ              = /dls/labxchem/data/lb32627/lb32627-65/processing/ana
REMARK   Gelly commands       = /dls/labxchem/data/lb32627/lb32627-65/processing
REMARK output written to subdirectory = Refine_8                                
REMARK best refinement for F,SIGF with R/Rfree 0.2236/0.2503                    
REMARK header records are copied from input PDB file (apart from REMARK 3!)     
REMARK --------------------- added by autoBUSTER -------------------------------
REMARK --------------------- added by autoBUSTER -------------------------------
REMARK run at   = Thu Jun 15 12:10:28 BST 2023                                  
REMARK     in   = /dls/labxchem/data/lb32627/lb32627-65/processing/analysis/mode
REMARK     user = xau79897                                                      
REMARK     cmd  = \                                                             
REMARK            /dls_sw/apps/GPhL/BUSTER/20230614/autoBUSTER/bin/linux64/refin
REMARK            -p \                                                          
REMARK            /dls/labxchem/data/lb32627/lb32627-65/processing/analysis/mode
REMARK            -m \                                                          
REMARK            /dls/labxchem/data/lb32627/lb32627-65/processing/analysis/mode
REMARK            -l \                                                          
REMARK            /dls/labxchem/data/lb32627/lb32627-65/processing/analysis/mode
REMARK            -autoncs -M TLSbasic StopOnGellySanityCheckError=no -d \      
REMARK            Refine_7                                                      
REMARK Files used:                                                              
REMARK   PDB              = Refine_7/pdbchk.pdb                                 
REMARK   MTZ              = /dls/labxchem/data/lb32627/lb32627-65/processing/ana
REMARK output written to subdirectory = Refine_7                                
REMARK best refinement for F,SIGF with R/Rfree 0.2248/0.2517                    
REMARK header records are copied from input PDB file (apart from REMARK 3!)     
REMARK --------------------- added by autoBUSTER -------------------------------
REMARK --------------------- added by autoBUSTER -------------------------------
REMARK run at   = Tue May 30 00:44:19 BST 2023                                  
REMARK     in   = /dls/labxchem/data/lb32627/lb32627-65/processing/analysis/mode
REMARK     user = xau79897                                                      
REMARK     cmd  = \                                                             
REMARK            /dls_sw/apps/GPhL/BUSTER/20230217/autoBUSTER/bin/linux64/refin
REMARK            -p \                                                          
REMARK            /dls/labxchem/data/lb32627/lb32627-65/processing/analysis/mode
REMARK            -m \                                                          
REMARK            /dls/labxchem/data/lb32627/lb32627-65/processing/analysis/mode
REMARK            -l \                                                          
REMARK            /dls/labxchem/data/lb32627/lb32627-65/processing/analysis/mode
REMARK            -autoncs -M TLSbasic -B user -Gelly gelly.dat \               
REMARK            StopOnGellySanityCheckError=no -d Refine_6                    
REMARK Files used:                                                              
REMARK   PDB              = Refine_6/pdbchk.pdb                                 
REMARK   MTZ              = /dls/labxchem/data/lb32627/lb32627-65/processing/ana
REMARK   Gelly commands       = /dls/labxchem/data/lb32627/lb32627-65/processing
REMARK output written to subdirectory = Refine_6                                
REMARK best refinement for F,SIGF with R/Rfree 0.2240/0.2519                    
REMARK header records are copied from input PDB file (apart from REMARK 3!)     
REMARK --------------------- added by autoBUSTER -------------------------------
REMARK --------------------- added by autoBUSTER -------------------------------
REMARK run at   = Wed May 24 14:04:02 BST 2023                                  
REMARK     in   = /dls/labxchem/data/lb32627/lb32627-65/processing/analysis/mode
REMARK     user = xau79897                                                      
REMARK     cmd  = \                                                             
REMARK            /dls_sw/apps/GPhL/BUSTER/20230217/autoBUSTER/bin/linux64/refin
REMARK            -p \                                                          
REMARK            /dls/labxchem/data/lb32627/lb32627-65/processing/analysis/mode
REMARK            -m \                                                          
REMARK            /dls/labxchem/data/lb32627/lb32627-65/processing/analysis/mode
REMARK            -l \                                                          
REMARK            /dls/labxchem/data/lb32627/lb32627-65/processing/analysis/mode
REMARK            -autoncs -M TLSbasic -WAT -B user -Gelly gelly.dat \          
REMARK            StopOnGellySanityCheckError=no -d Refine_5                    
REMARK Files used:                                                              
REMARK   PDB              = Refine_5/pdbchk.pdb                                 
REMARK   MTZ              = /dls/labxchem/data/lb32627/lb32627-65/processing/ana
REMARK   Gelly commands       = /dls/labxchem/data/lb32627/lb32627-65/processing
REMARK output written to subdirectory = Refine_5                                
REMARK best refinement for F,SIGF with R/Rfree 0.2235/0.2510                    
REMARK header records are copied from input PDB file (apart from REMARK 3!)     
REMARK --------------------- added by autoBUSTER -------------------------------
REMARK --------------------- added by autoBUSTER -------------------------------
REMARK run at   = Tue May 23 17:08:05 BST 2023                                  
REMARK     in   = /dls/labxchem/data/lb32627/lb32627-65/processing/analysis/mode
REMARK     user = xau79897                                                      
REMARK     cmd  = \                                                             
REMARK            /dls_sw/apps/GPhL/BUSTER/20230217/autoBUSTER/bin/linux64/refin
REMARK            -p \                                                          
REMARK            /dls/labxchem/data/lb32627/lb32627-65/processing/analysis/mode
REMARK            -m \                                                          
REMARK            /dls/labxchem/data/lb32627/lb32627-65/processing/analysis/mode
REMARK            -l \                                                          
REMARK            /dls/labxchem/data/lb32627/lb32627-65/processing/analysis/mode
REMARK            -autoncs -M TLSbasic -d Refine_4                              
REMARK Files used:                                                              
REMARK   PDB              = Refine_4/pdbchk.pdb                                 
REMARK   MTZ              = /dls/labxchem/data/lb32627/lb32627-65/processing/ana
REMARK output written to subdirectory = Refine_4                                
REMARK best refinement for F,SIGF with R/Rfree 0.2316/0.2520                    
REMARK header records are copied from input PDB file (apart from REMARK 3!)     
REMARK --------------------- added by autoBUSTER -------------------------------
REMARK   2                                                            
REMARK   2 RESOLUTION.    1.39 ANGSTROMS.
REMARK   3
REMARK   3 REFINEMENT.
REMARK   3   PROGRAM     : BUSTER 2.10.4 (26-JUL-2023)
REMARK   3   AUTHORS     : BRICOGNE,BLANC,BRANDL,FLENSBURG,KELLER,
REMARK   3               : PACIOREK,ROVERSI,SHARFF,SMART,VONRHEIN,WOMACK;
REMARK   3               : MATTHEWS,TEN EYCK,TRONRUD
REMARK   3
REMARK   3  DATA USED IN REFINEMENT.
REMARK   3   RESOLUTION RANGE HIGH (ANGSTROMS) : 1.390
REMARK   3   RESOLUTION RANGE LOW  (ANGSTROMS) : 36.76
REMARK   3   DATA CUTOFF            (SIGMA(F)) : 0.000
REMARK   3   COMPLETENESS FOR RANGE        (%) : 89.8
REMARK   3   NUMBER OF REFLECTIONS             : 37629
REMARK   3
REMARK   3  FIT TO DATA USED IN REFINEMENT.
REMARK   3   CROSS-VALIDATION METHOD          : THROUGHOUT
REMARK   3   FREE R VALUE TEST SET SELECTION  : RANDOM
REMARK   3   R VALUE     (WORKING + TEST SET) : 0.2244
REMARK   3   R VALUE            (WORKING SET) : 0.2230
REMARK   3   FREE R VALUE                     : 0.2501
REMARK   3   FREE R VALUE TEST SET SIZE   (%) : 5.090
REMARK   3   FREE R VALUE TEST SET COUNT      : 1915
REMARK   3   ESTIMATED ERROR OF FREE R VALUE  : NULL
REMARK   3
REMARK   3  FIT IN THE HIGHEST RESOLUTION BIN.
REMARK   3   TOTAL NUMBER OF BINS USED           : 51
REMARK   3   BIN RESOLUTION RANGE HIGH       (A) : 1.39
REMARK   3   BIN RESOLUTION RANGE LOW        (A) : 1.45
REMARK   3   BIN COMPLETENESS (WORKING+TEST) (%) : 16.27
REMARK   3   REFLECTIONS IN BIN   (WORKING+TEST) : 753
REMARK   3   BIN R VALUE          (WORKING+TEST) : 0.5864
REMARK   3   REFLECTIONS IN BIN    (WORKING SET) : 702
REMARK   3   BIN R VALUE           (WORKING SET) : 0.5935
REMARK   3   BIN FREE R VALUE                    : 0.4865
REMARK   3   BIN FREE R VALUE TEST SET SIZE  (%) : 6.77
REMARK   3   BIN FREE R VALUE TEST SET COUNT     : 51
REMARK   3   ESTIMATED ERROR OF BIN FREE R VALUE : NULL
REMARK   3
REMARK   3  NUMBER OF NON-HYDROGEN ATOMS USED IN REFINEMENT.
REMARK   3   PROTEIN ATOMS            : 1476
REMARK   3   NUCLEIC ACID ATOMS       : 0
REMARK   3   HETEROGEN ATOMS          : 16
REMARK   3   SOLVENT ATOMS            : 142
REMARK   3
REMARK   3  B VALUES.
REMARK   3   FROM WILSON PLOT           (A**2) : 29.61
REMARK   3   MEAN B VALUE      (OVERALL, A**2) : 45.87
REMARK   3   OVERALL ANISOTROPIC B VALUE.
REMARK   3    B11 (A**2) : -4.77030
REMARK   3    B22 (A**2) : -4.77030
REMARK   3    B33 (A**2) : 9.54060
REMARK   3    B12 (A**2) : 0.00000
REMARK   3    B13 (A**2) : 0.00000
REMARK   3    B23 (A**2) : 0.00000
REMARK   3
REMARK   3  ESTIMATED COORDINATE ERROR.
REMARK   3   ESD FROM LUZZATI PLOT                    (A) : 0.27
REMARK   3   DPI (BLOW EQ-10) BASED ON R VALUE        (A) : 0.080
REMARK   3   DPI (BLOW EQ-9) BASED ON FREE R VALUE    (A) : 0.080
REMARK   3   DPI (CRUICKSHANK) BASED ON R VALUE       (A) : 0.075
REMARK   3   DPI (CRUICKSHANK) BASED ON FREE R VALUE  (A) : 0.076
REMARK   3
REMARK   3   REFERENCES: BLOW, D. (2002) ACTA CRYST D58, 792-797
REMARK   3               CRUICKSHANK, D.W.J. (1999) ACTA CRYST D55, 583-601
REMARK   3
REMARK   3  CORRELATION COEFFICIENTS.
REMARK   3   CORRELATION COEFFICIENT FO-FC      : 0.951
REMARK   3   CORRELATION COEFFICIENT FO-FC FREE : 0.945
REMARK   3
REMARK   3  X-RAY WEIGHT : 6.35
REMARK   3
REMARK   3  GEOMETRY FUNCTION.                                                  
REMARK   3   RESTRAINT LIBRARIES.                                               
REMARK   3    NUMBER OF LIBRARIES USED :   9                                    
REMARK   3    LIBRARY  1 : protgeo_eh99.dat (V1.6.4.20) 20220523  STANDARD      
REMARK   3                 AMINO ACID DICTIONARY. BONDS AND ANGLES FROM         
REMARK   3                 ENGH AND HUBER EH99. OTHER VALUES BASED ON           
REMARK   3                 PREVIOUS TNT OR TAKEN FROM CCP4. INCLUDES            
REMARK   3                 HYDROGEN ATOMS.                                      
REMARK   3    LIBRARY  2 : exoticaa.dat (V1.3.4.16) 20220523  COLLECTION        
REMARK   3                 OF NON-STANDARD AMINO ACIDS, MAINLY EH91             
REMARK   3                 WITHOUT IDEAL DISTANCE INFO                          
REMARK   3    LIBRARY  3 : nuclgeo.dat (V1.13.4.9) 20221011                     
REMARK   3    LIBRARY  4 : bcorrel.dat (V1.15.10.2) 20190616                    
REMARK   3    LIBRARY  5 : contact.dat (V1.15.12.10) 20191121                   
REMARK   3    LIBRARY  6 : idealdist_contact.dat (V1.3.4.14) 20230724           
REMARK   3                 IDEAL-DISTANCE CONTACT TERM DATA AS USED IN          
REMARK   3                 PROLSQ. VALUES USED HERE ARE BASEd ON DATA           
REMARK   3                 HARVESTING OF PDB AS OF 20190109                     
REMARK   3    LIBRARY  7 : restraints for LIG (unknown) from cif                
REMARK   3                 dictionary Z1269184291.cif; generated by GRADE       
REMARK   3                 1.2.21 (Feb 03 2022) from SMILES                     
REMARK   3                 C[N+]=1C=CC=C(Br)C1 using MOGUL 1.8.5(274361),       
REMARK   3                 CSD as541be, with quantum mechanics RM1              
REMARK   3    LIBRARY  8 : restraints for DMS (DIMETHYL SULFOXIDE) from         
REMARK   3                 cif dictionary DMS.cif; generated by grade2          
REMARK   3                 version 1.1.0a7 from                                 
REMARK   3                 PDB_chemical_components_definition_file              
REMARK   3                 ftp://ftp.ebi.ac.uk/pub/databases/msd/pdbechem_v     
REMARK   3                 2/D/DMS/DMS.cif using RDKit 2021.03.4                
REMARK   3                 ((DatabaseID PDB-DMS))                               
REMARK   3    LIBRARY  9 : assume.dat (V1.9.4.3) 20221011                       
REMARK   3                                                                      
REMARK   3   NUMBER OF GEOMETRIC FUNCTION TERMS DEFINED : 15                    
REMARK   3   TERM                          COUNT    WEIGHT   FUNCTION.          
REMARK   3    BOND LENGTHS              :   1592 ;   2.00 ;  HARMONIC           
REMARK   3    BOND ANGLES               :   2169 ;   2.00 ;  HARMONIC           
REMARK   3    TORSION ANGLES            :    535 ;   2.00 ;  SINUSOIDAL         
REMARK   3    TRIGONAL CARBON PLANES    :   NULL ;   NULL ;  NULL               
REMARK   3    GENERAL PLANES            :    280 ;   5.00 ;  HARMONIC           
REMARK   3    ISOTROPIC THERMAL FACTORS :   1592 ;  10.00 ;  HARMONIC           
REMARK   3    BAD NON-BONDED CONTACTS   :   NULL ;   NULL ;  NULL               
REMARK   3    IMPROPER TORSIONS         :   NULL ;   NULL ;  NULL               
REMARK   3    PSEUDOROTATION ANGLES     :   NULL ;   NULL ;  NULL               
REMARK   3    CHIRAL IMPROPER TORSION   :    196 ;   5.00 ;  SEMIHARMONIC       
REMARK   3    SUM OF OCCUPANCIES        :   NULL ;   NULL ;  NULL               
REMARK   3    UTILITY DISTANCES         :   NULL ;   NULL ;  NULL               
REMARK   3    UTILITY ANGLES            :   NULL ;   NULL ;  NULL               
REMARK   3    UTILITY TORSION           :   NULL ;   NULL ;  NULL               
REMARK   3    IDEAL-DIST CONTACT TERM   :   1339 ;   4.00 ;  SEMIHARMONIC       
REMARK   3                                                                      
REMARK   3   RMS DEVIATIONS FROM IDEAL VALUES.                                  
REMARK   3   BOND LENGTHS                       (A) : 0.012                     
REMARK   3   BOND ANGLES                  (DEGREES) : 1.11                      
REMARK   3   PEPTIDE OMEGA TORSION ANGLES (DEGREES) : 4.19                      
REMARK   3   OTHER TORSION ANGLES         (DEGREES) : 15.29                     
REMARK   3                                                                      
REMARK   3   SIMILARITY.                                                        
REMARK   3    NCS.                                                              
REMARK   3     NCS METHOD: NONE                                                 
REMARK   3    TARGET RESTRAINTS.                                                
REMARK   3     TARGET REPRESENTATION : NONE                                     
REMARK   3     TARGET STRUCTURE : NULL                                          
REMARK   3                                                                      
REMARK   3  TLS DETAILS.                                                        
REMARK   3   NUMBER OF TLS GROUPS  :            2                               
REMARK   3                                                                      
REMARK   3   TLS GROUP :            1                                           
REMARK   3    SET : { A|* }                                                     
REMARK   3    ORIGIN FOR THE GROUP (A):  -14.1069   -1.2255  -19.5192           
REMARK   3    T TENSOR                                                          
REMARK   3     T11:    0.0415 T22:    0.0473                                    
REMARK   3     T33:   -0.1445 T12:    0.1747                                    
REMARK   3     T13:    0.0977 T23:    0.0677                                    
REMARK   3    L TENSOR                                                          
REMARK   3     L11:    2.3706 L22:    3.0225                                    
REMARK   3     L33:    2.6456 L12:   -1.3938                                    
REMARK   3     L13:    0.9891 L23:    0.1303                                    
REMARK   3    S TENSOR                                                          
REMARK   3     S11:    0.4302 S12:    0.4372 S13:    0.2590                     
REMARK   3     S21:   -0.5446 S22:   -0.3867 S23:   -0.2712                     
REMARK   3     S31:   -0.0317 S32:    0.5701 S33:   -0.0435                     
REMARK   3                                                                      
REMARK   3   TLS GROUP :            2                                           
REMARK   3    SET : { B|* }                                                     
REMARK   3    ORIGIN FOR THE GROUP (A):  -18.6166    1.3635  -15.4760           
REMARK   3    T TENSOR                                                          
REMARK   3     T11:    0.0831 T22:    0.0043                                    
REMARK   3     T33:   -0.0189 T12:    0.1232                                    
REMARK   3     T13:    0.0230 T23:    0.0243                                    
REMARK   3    L TENSOR                                                          
REMARK   3     L11:    1.1727 L22:    1.1625                                    
REMARK   3     L33:    1.8974 L12:   -0.9359                                    
REMARK   3     L13:    0.7588 L23:   -0.0338                                    
REMARK   3    S TENSOR                                                          
REMARK   3     S11:    0.2841 S12:    0.1349 S13:    0.0722                     
REMARK   3     S21:   -0.2007 S22:   -0.2880 S23:    0.0526                     
REMARK   3     S31:   -0.0225 S32:    0.2197 S33:    0.0039                     
REMARK   3                                                                      
REMARK   3  REFINEMENT NOTES.                                                   
REMARK   3   NUMBER OF REFINEMENT NOTES :   1                                   
REMARK   3   NOTE   1 : IDEAL-DIST CONTACT TERM CONTACT SETUP. ALL ATOMS        
REMARK   3               HAVE CCP4 ATOM TYPE FROM LIBRARY                       
REMARK   3
REMARK   3  OTHER REFINEMENT REMARKS: NULL
REMARK   3
REMARK 290                                                            
REMARK 290 CRYSTALLOGRAPHIC SYMMETRY                                  
REMARK 290 SYMMETRY OPERATORS FOR SPACE GROUP: P 43 2 2               
REMARK 290                                                            
REMARK 290      SYMOP   SYMMETRY                                      
REMARK 290     NNNMMM   OPERATOR                                      
REMARK 290       1555   X,Y,Z                                         
REMARK 290       2555   -X,-Y,1/2+Z                                   
REMARK 290       3555   -Y,X,3/4+Z                                    
REMARK 290       4555   Y,-X,1/4+Z                                    
REMARK 290       5555   -X,Y,-Z                                       
REMARK 290       6555   X,-Y,1/2-Z                                    
REMARK 290       7555   Y,X,1/4-Z                                     
REMARK 290       8555   -Y,-X,3/4-Z                                   
REMARK 290                                                            
REMARK 290     WHERE NNN -> OPERATOR NUMBER                           
REMARK 290           MMM -> TRANSLATION VECTOR                        
REMARK 290                                                            
REMARK 290 CRYSTALLOGRAPHIC SYMMETRY TRANSFORMATIONS                  
REMARK 290 THE FOLLOWING TRANSFORMATIONS OPERATE ON THE ATOM/HETATM   
REMARK 290 RECORDS IN THIS ENTRY TO PRODUCE CRYSTALLOGRAPHICALLY      
REMARK 290 RELATED MOLECULES.                                         
REMARK 290   SMTRY1   1  1.000000  0.000000  0.000000        0.00000
REMARK 290   SMTRY2   1  0.000000  1.000000  0.000000        0.00000
REMARK 290   SMTRY3   1  0.000000  0.000000  1.000000        0.00000
REMARK 290   SMTRY1   2 -1.000000  0.000000  0.000000        0.00000
REMARK 290   SMTRY2   2  0.000000 -1.000000  0.000000        0.00000
REMARK 290   SMTRY3   2  0.000000  0.000000  1.000000      108.44300
REMARK 290   SMTRY1   3  0.000000 -1.000000  0.000000        0.00000
REMARK 290   SMTRY2   3  1.000000  0.000000  0.000000        0.00000
REMARK 290   SMTRY3   3  0.000000  0.000000  1.000000      162.66450
REMARK 290   SMTRY1   4  0.000000  1.000000  0.000000        0.00000
REMARK 290   SMTRY2   4 -1.000000  0.000000  0.000000        0.00000
REMARK 290   SMTRY3   4  0.000000  0.000000  1.000000       54.22150
REMARK 290   SMTRY1   5 -1.000000  0.000000  0.000000        0.00000
REMARK 290   SMTRY2   5  0.000000  1.000000  0.000000        0.00000
REMARK 290   SMTRY3   5  0.000000  0.000000 -1.000000        0.00000
REMARK 290   SMTRY1   6  1.000000  0.000000  0.000000        0.00000
REMARK 290   SMTRY2   6  0.000000 -1.000000  0.000000        0.00000
REMARK 290   SMTRY3   6  0.000000  0.000000 -1.000000      108.44300
REMARK 290   SMTRY1   7  0.000000  1.000000  0.000000        0.00000
REMARK 290   SMTRY2   7  1.000000  0.000000  0.000000        0.00000
REMARK 290   SMTRY3   7  0.000000  0.000000 -1.000000       54.22150
REMARK 290   SMTRY1   8  0.000000 -1.000000  0.000000        0.00000
REMARK 290   SMTRY2   8 -1.000000  0.000000  0.000000        0.00000
REMARK 290   SMTRY3   8  0.000000  0.000000 -1.000000      162.66450
REMARK 290                                                            
REMARK 290 REMARK: NULL                                               
CRYST1   42.686   42.686  216.886  90.00  90.00  90.00 P 43 2 2                 


$$$$
Zx0589a_ligand
  PyMOL3.0          3D                             0

  8  8  0  0  0  0  0  0  0  0999 V2000
   -9.1180    4.3370  -17.8780 C   0  0  0  0  0  0  0  0  0  0  0  0
   -7.8120    4.8440  -15.9910 N   0  3  0  0  0  0  0  0  0  0  0  0
   -8.0460    4.5590  -18.7140 C   0  0  0  0  0  0  0  0  0  0  0  0
   -6.8420    4.9400  -18.1470 C   0  0  0  0  0  0  0  0  0  0  0  0
   -6.7420    5.0780  -16.7800 C   0  0  0  0  0  0  0  0  0  0  0  0
   -9.0020    4.4780  -16.5130 C   0  0  0  0  0  0  0  0  0  0  0  0
   -7.6870    4.9960  -14.5250 C   0  0  0  0  0  0  0  0  0  0  0  0
  -10.8080    3.8620  -18.6040 Br  0  0  0  0  0  0  0  0  0  0  0  0
  1  3  4  0  0  0  0
  1  6  4  0  0  0  0
  2  7  1  0  0  0  0
  3  4  4  0  0  0  0
  4  5  4  0  0  0  0
  2  5  4  0  0  0  0
  2  6  4  0  0  0  0
  1  8  1  0  0  0  0
M  END
>  <pdb_header>
COMPND    XX01ZVNS2B-x0589_B_301_XX01ZVNS2B-x1291+B+301+1


$$$$
Zx0601a
  PyMOL3.0          3D                             0

  9  9  0  0  0  0  0  0  0  0999 V2000
   -7.1770    4.9130  -17.9900 N   0  0  0  0  0  0  0  0  0  0  0  0
   -6.5030    5.2290  -19.2490 C   0  0  0  0  0  0  0  0  0  0  0  0
   -8.4550    4.5820  -17.7100 C   0  0  0  0  0  0  0  0  0  0  0  0
   -6.5870    4.8830  -16.7470 N   0  3  0  0  0  0  0  0  0  0  0  0
   -9.4560    4.4120  -18.6960 C   0  0  0  0  0  0  0  0  0  0  0  0
  -10.7100    4.2660  -18.3520 C   0  0  0  0  0  0  0  0  0  0  0  0
   -8.6660    4.3670  -16.3350 C   0  0  0  0  0  0  0  0  0  0  0  0
   -7.4430    4.5650  -15.7600 C   0  0  0  0  0  0  0  0  0  0  0  0
   -5.1640    5.1510  -16.5360 C   0  0  0  0  0  0  0  0  0  0  0  0
  1  2  1  0  0  0  0
  1  3  4  0  0  0  0
  3  7  4  0  0  0  0
  1  4  4  0  0  0  0
  4  9  1  0  0  0  0
  3  5  1  0  0  0  0
  5  6  1  0  0  0  0
  7  8  4  0  0  0  0
  4  8  4  0  0  0  0
M  END
>  <pdb_header>
HEADER    ----                                    18-MAY-23                     
TITLE     ---                                                                   
EXPDTA    X-RAY DIFFRACTION                                                     
REMARK --------------------- added by autoBUSTER ---------------------------------START
REMARK run at   = Fri Aug 11 10:16:47 BST 2023
REMARK     in   = /dls/labxchem/data/lb32627/lb32627-65/processing/analysis/model_building/XX01ZVNS2B-x0601
REMARK     user = kyf22269
REMARK     cmd  = \
REMARK            /dls_sw/apps/GPhL/BUSTER/20230614/autoBUSTER/bin/linux64/refine \
REMARK            -p \
REMARK            /dls/labxchem/data/lb32627/lb32627-65/processing/analysis/model_building/XX01ZVNS2B-x0601/cootOut/Refi
REMARK            -m \
REMARK            /dls/labxchem/data/lb32627/lb32627-65/processing/analysis/model_building/XX01ZVNS2B-x0601/XX01ZVNS2B-x
REMARK            -l \
REMARK            /dls/labxchem/data/lb32627/lb32627-65/processing/analysis/model_building/XX01ZVNS2B-x0601/Z4605084899.
REMARK            -autoncs -M TLSbasic -d Refine_11
REMARK Files used:
REMARK   PDB              = Refine_11/pdbchk.pdb
REMARK   MTZ              = /dls/labxchem/data/lb32627/lb32627-65/processing/analysis/model_building/XX01ZVNS2B-x0601/XX
REMARK output written to subdirectory = Refine_11
REMARK best refinement for F,SIGF with R/Rfree 0.2171/0.2457
REMARK header records are copied from input PDB file (apart from REMARK 3!)
REMARK --------------------- added by autoBUSTER -----------------------------------END
REMARK --------------------- added by autoBUSTER -------------------------------
REMARK run at   = Wed Aug  9 14:17:32 BST 2023                                  
REMARK     in   = /dls/labxchem/data/lb32627/lb32627-65/processing/analysis/mode
REMARK     user = kyf22269                                                      
REMARK     cmd  = \                                                             
REMARK            /dls_sw/apps/GPhL/BUSTER/20230614/autoBUSTER/bin/linux64/refin
REMARK            -p \                                                          
REMARK            /dls/labxchem/data/lb32627/lb32627-65/processing/analysis/mode
REMARK            -m \                                                          
REMARK            /dls/labxchem/data/lb32627/lb32627-65/processing/analysis/mode
REMARK            -l \                                                          
REMARK            /dls/labxchem/data/lb32627/lb32627-65/processing/analysis/mode
REMARK            -autoncs -M TLSbasic -d Refine_10                             
REMARK Files used:                                                              
REMARK   PDB              = Refine_10/pdbchk.pdb                                
REMARK   MTZ              = /dls/labxchem/data/lb32627/lb32627-65/processing/ana
REMARK output written to subdirectory = Refine_10                               
REMARK best refinement for F,SIGF with R/Rfree 0.2174/0.2446                    
REMARK header records are copied from input PDB file (apart from REMARK 3!)     
REMARK --------------------- added by autoBUSTER -------------------------------
REMARK --------------------- added by autoBUSTER -------------------------------
REMARK run at   = Wed Aug  9 10:55:32 BST 2023                                  
REMARK     in   = /dls/labxchem/data/lb32627/lb32627-65/processing/analysis/mode
REMARK     user = kyf22269                                                      
REMARK     cmd  = \                                                             
REMARK            /dls_sw/apps/GPhL/BUSTER/20230614/autoBUSTER/bin/linux64/refin
REMARK            -p \                                                          
REMARK            /dls/labxchem/data/lb32627/lb32627-65/processing/analysis/mode
REMARK            -m \                                                          
REMARK            /dls/labxchem/data/lb32627/lb32627-65/processing/analysis/mode
REMARK            -l \                                                          
REMARK            /dls/labxchem/data/lb32627/lb32627-65/processing/analysis/mode
REMARK            -autoncs -M TLSbasic -d Refine_9                              
REMARK Files used:                                                              
REMARK   PDB              = Refine_9/pdbchk.pdb                                 
REMARK   MTZ              = /dls/labxchem/data/lb32627/lb32627-65/processing/ana
REMARK output written to subdirectory = Refine_9                                
REMARK best refinement for F,SIGF with R/Rfree 0.2183/0.2465                    
REMARK header records are copied from input PDB file (apart from REMARK 3!)     
REMARK --------------------- added by autoBUSTER -------------------------------
REMARK --------------------- added by autoBUSTER -------------------------------
REMARK run at   = Fri Aug  4 15:20:37 BST 2023                                  
REMARK     in   = /dls/labxchem/data/lb32627/lb32627-65/processing/analysis/mode
REMARK     user = kyf22269                                                      
REMARK     cmd  = \                                                             
REMARK            /dls_sw/apps/GPhL/BUSTER/20230614/autoBUSTER/bin/linux64/refin
REMARK            -p \                                                          
REMARK            /dls/labxchem/data/lb32627/lb32627-65/processing/analysis/mode
REMARK            -m \                                                          
REMARK            /dls/labxchem/data/lb32627/lb32627-65/processing/analysis/mode
REMARK            -l \                                                          
REMARK            /dls/labxchem/data/lb32627/lb32627-65/processing/analysis/mode
REMARK            -autoncs -M TLSbasic -d Refine_8                              
REMARK Files used:                                                              
REMARK   PDB              = Refine_8/pdbchk.pdb                                 
REMARK   MTZ              = /dls/labxchem/data/lb32627/lb32627-65/processing/ana
REMARK output written to subdirectory = Refine_8                                
REMARK best refinement for F,SIGF with R/Rfree 0.2183/0.2486                    
REMARK header records are copied from input PDB file (apart from REMARK 3!)     
REMARK --------------------- added by autoBUSTER -------------------------------
REMARK --------------------- added by autoBUSTER -------------------------------
REMARK run at   = Tue Aug  1 15:55:14 BST 2023                                  
REMARK     in   = /dls/labxchem/data/lb32627/lb32627-65/processing/analysis/mode
REMARK     user = kyf22269                                                      
REMARK     cmd  = \                                                             
REMARK            /dls_sw/apps/GPhL/BUSTER/20230614/autoBUSTER/bin/linux64/refin
REMARK            -p \                                                          
REMARK            /dls/labxchem/data/lb32627/lb32627-65/processing/analysis/mode
REMARK            -m \                                                          
REMARK            /dls/labxchem/data/lb32627/lb32627-65/processing/analysis/mode
REMARK            -l \                                                          
REMARK            /dls/labxchem/data/lb32627/lb32627-65/processing/analysis/mode
REMARK            -autoncs -M TLSbasic -d Refine_7                              
REMARK Files used:                                                              
REMARK   PDB              = Refine_7/pdbchk.pdb                                 
REMARK   MTZ              = /dls/labxchem/data/lb32627/lb32627-65/processing/ana
REMARK output written to subdirectory = Refine_7                                
REMARK best refinement for F,SIGF with R/Rfree 0.2187/0.2431                    
REMARK header records are copied from input PDB file (apart from REMARK 3!)     
REMARK --------------------- added by autoBUSTER -------------------------------
REMARK --------------------- added by autoBUSTER -------------------------------
REMARK run at   = Wed Jun 14 20:44:58 BST 2023                                  
REMARK     in   = /dls/labxchem/data/lb32627/lb32627-65/processing/analysis/mode
REMARK     user = xau79897                                                      
REMARK     cmd  = \                                                             
REMARK            /dls_sw/apps/GPhL/BUSTER/20230614/autoBUSTER/bin/linux64/refin
REMARK            -p \                                                          
REMARK            /dls/labxchem/data/lb32627/lb32627-65/processing/analysis/mode
REMARK            -m \                                                          
REMARK            /dls/labxchem/data/lb32627/lb32627-65/processing/analysis/mode
REMARK            -l \                                                          
REMARK            /dls/labxchem/data/lb32627/lb32627-65/processing/analysis/mode
REMARK            -autoncs -M TLSbasic -d Refine_6                              
REMARK Files used:                                                              
REMARK   PDB              = Refine_6/pdbchk.pdb                                 
REMARK   MTZ              = /dls/labxchem/data/lb32627/lb32627-65/processing/ana
REMARK output written to subdirectory = Refine_6                                
REMARK best refinement for F,SIGF with R/Rfree 0.2225/0.2497                    
REMARK header records are copied from input PDB file (apart from REMARK 3!)     
REMARK --------------------- added by autoBUSTER -------------------------------
REMARK --------------------- added by autoBUSTER -------------------------------
REMARK run at   = Tue May 30 00:45:44 BST 2023                                  
REMARK     in   = /dls/labxchem/data/lb32627/lb32627-65/processing/analysis/mode
REMARK     user = xau79897                                                      
REMARK     cmd  = \                                                             
REMARK            /dls_sw/apps/GPhL/BUSTER/20230217/autoBUSTER/bin/linux64/refin
REMARK            -p \                                                          
REMARK            /dls/labxchem/data/lb32627/lb32627-65/processing/analysis/mode
REMARK            -m \                                                          
REMARK            /dls/labxchem/data/lb32627/lb32627-65/processing/analysis/mode
REMARK            -l \                                                          
REMARK            /dls/labxchem/data/lb32627/lb32627-65/processing/analysis/mode
REMARK            -autoncs -M TLSbasic -B user -Gelly gelly.dat \               
REMARK            StopOnGellySanityCheckError=no -d Refine_5                    
REMARK Files used:                                                              
REMARK   PDB              = Refine_5/pdbchk.pdb                                 
REMARK   MTZ              = /dls/labxchem/data/lb32627/lb32627-65/processing/ana
REMARK   Gelly commands       = /dls/labxchem/data/lb32627/lb32627-65/processing
REMARK output written to subdirectory = Refine_5                                
REMARK best refinement for F,SIGF with R/Rfree 0.2225/0.2501                    
REMARK header records are copied from input PDB file (apart from REMARK 3!)     
REMARK --------------------- added by autoBUSTER -------------------------------
REMARK --------------------- added by autoBUSTER -------------------------------
REMARK run at   = Wed May 24 14:12:21 BST 2023                                  
REMARK     in   = /dls/labxchem/data/lb32627/lb32627-65/processing/analysis/mode
REMARK     user = xau79897                                                      
REMARK     cmd  = \                                                             
REMARK            /dls_sw/apps/GPhL/BUSTER/20230217/autoBUSTER/bin/linux64/refin
REMARK            -p \                                                          
REMARK            /dls/labxchem/data/lb32627/lb32627-65/processing/analysis/mode
REMARK            -m \                                                          
REMARK            /dls/labxchem/data/lb32627/lb32627-65/processing/analysis/mode
REMARK            -l \                                                          
REMARK            /dls/labxchem/data/lb32627/lb32627-65/processing/analysis/mode
REMARK            -autoncs -M TLSbasic -WAT -B user -Gelly gelly.dat \          
REMARK            StopOnGellySanityCheckError=no -d Refine_4                    
REMARK Files used:                                                              
REMARK   PDB              = Refine_4/pdbchk.pdb                                 
REMARK   MTZ              = /dls/labxchem/data/lb32627/lb32627-65/processing/ana
REMARK   Gelly commands       = /dls/labxchem/data/lb32627/lb32627-65/processing
REMARK output written to subdirectory = Refine_4                                
REMARK best refinement for F,SIGF with R/Rfree 0.2223/0.2473                    
REMARK header records are copied from input PDB file (apart from REMARK 3!)     
REMARK --------------------- added by autoBUSTER -------------------------------
REMARK --------------------- added by autoBUSTER -------------------------------
REMARK run at   = Tue May 23 17:08:20 BST 2023                                  
REMARK     in   = /dls/labxchem/data/lb32627/lb32627-65/processing/analysis/mode
REMARK     user = xau79897                                                      
REMARK     cmd  = \                                                             
REMARK            /dls_sw/apps/GPhL/BUSTER/20230217/autoBUSTER/bin/linux64/refin
REMARK            -p \                                                          
REMARK            /dls/labxchem/data/lb32627/lb32627-65/processing/analysis/mode
REMARK            -m \                                                          
REMARK            /dls/labxchem/data/lb32627/lb32627-65/processing/analysis/mode
REMARK            -l \                                                          
REMARK            /dls/labxchem/data/lb32627/lb32627-65/processing/analysis/mode
REMARK            -autoncs -M TLSbasic -d Refine_3                              
REMARK Files used:                                                              
REMARK   PDB              = Refine_3/pdbchk.pdb                                 
REMARK   MTZ              = /dls/labxchem/data/lb32627/lb32627-65/processing/ana
REMARK output written to subdirectory = Refine_3                                
REMARK best refinement for F,SIGF with R/Rfree 0.2298/0.2440                    
REMARK header records are copied from input PDB file (apart from REMARK 3!)     
REMARK --------------------- added by autoBUSTER -------------------------------
REMARK   2                                                            
REMARK   2 RESOLUTION.    1.39 ANGSTROMS.
REMARK   3
REMARK   3 REFINEMENT.
REMARK   3   PROGRAM     : BUSTER 2.10.4 (14-JUN-2023)
REMARK   3   AUTHORS     : BRICOGNE,BLANC,BRANDL,FLENSBURG,KELLER,
REMARK   3               : PACIOREK,ROVERSI,SHARFF,SMART,VONRHEIN,WOMACK;
REMARK   3               : MATTHEWS,TEN EYCK,TRONRUD
REMARK   3
REMARK   3  DATA USED IN REFINEMENT.
REMARK   3   RESOLUTION RANGE HIGH (ANGSTROMS) : 1.390
REMARK   3   RESOLUTION RANGE LOW  (ANGSTROMS) : 19.33
REMARK   3   DATA CUTOFF            (SIGMA(F)) : 0.000
REMARK   3   COMPLETENESS FOR RANGE        (%) : 90.6
REMARK   3   NUMBER OF REFLECTIONS             : 37803
REMARK   3
REMARK   3  FIT TO DATA USED IN REFINEMENT.
REMARK   3   CROSS-VALIDATION METHOD          : THROUGHOUT
REMARK   3   FREE R VALUE TEST SET SELECTION  : RANDOM
REMARK   3   R VALUE     (WORKING + TEST SET) : 0.2185
REMARK   3   R VALUE            (WORKING SET) : 0.2171
REMARK   3   FREE R VALUE                     : 0.2457
REMARK   3   FREE R VALUE TEST SET SIZE   (%) : 5.050
REMARK   3   FREE R VALUE TEST SET COUNT      : 1909
REMARK   3   ESTIMATED ERROR OF FREE R VALUE  : NULL
REMARK   3
REMARK   3  FIT IN THE HIGHEST RESOLUTION BIN.
REMARK   3   TOTAL NUMBER OF BINS USED           : 51
REMARK   3   BIN RESOLUTION RANGE HIGH       (A) : 1.39
REMARK   3   BIN RESOLUTION RANGE LOW        (A) : 1.44
REMARK   3   BIN COMPLETENESS (WORKING+TEST) (%) : 17.31
REMARK   3   REFLECTIONS IN BIN   (WORKING+TEST) : 757
REMARK   3   BIN R VALUE          (WORKING+TEST) : 0.5916
REMARK   3   REFLECTIONS IN BIN    (WORKING SET) : 717
REMARK   3   BIN R VALUE           (WORKING SET) : 0.5902
REMARK   3   BIN FREE R VALUE                    : 0.6187
REMARK   3   BIN FREE R VALUE TEST SET SIZE  (%) : 5.28
REMARK   3   BIN FREE R VALUE TEST SET COUNT     : 40
REMARK   3   ESTIMATED ERROR OF BIN FREE R VALUE : NULL
REMARK   3
REMARK   3  NUMBER OF NON-HYDROGEN ATOMS USED IN REFINEMENT.
REMARK   3   PROTEIN ATOMS            : 1476
REMARK   3   NUCLEIC ACID ATOMS       : 0
REMARK   3   HETEROGEN ATOMS          : 31
REMARK   3   SOLVENT ATOMS            : 141
REMARK   3
REMARK   3  B VALUES.
REMARK   3   FROM WILSON PLOT           (A**2) : 29.23
REMARK   3   MEAN B VALUE      (OVERALL, A**2) : 46.29
REMARK   3   OVERALL ANISOTROPIC B VALUE.
REMARK   3    B11 (A**2) : -4.83660
REMARK   3    B22 (A**2) : -4.83660
REMARK   3    B33 (A**2) : 9.67320
REMARK   3    B12 (A**2) : 0.00000
REMARK   3    B13 (A**2) : 0.00000
REMARK   3    B23 (A**2) : 0.00000
REMARK   3
REMARK   3  ESTIMATED COORDINATE ERROR.
REMARK   3   ESD FROM LUZZATI PLOT                    (A) : 0.27
REMARK   3   DPI (BLOW EQ-10) BASED ON R VALUE        (A) : 0.078
REMARK   3   DPI (BLOW EQ-9) BASED ON FREE R VALUE    (A) : 0.079
REMARK   3   DPI (CRUICKSHANK) BASED ON R VALUE       (A) : 0.074
REMARK   3   DPI (CRUICKSHANK) BASED ON FREE R VALUE  (A) : 0.075
REMARK   3
REMARK   3   REFERENCES: BLOW, D. (2002) ACTA CRYST D58, 792-797
REMARK   3               CRUICKSHANK, D.W.J. (1999) ACTA CRYST D55, 583-601
REMARK   3
REMARK   3  CORRELATION COEFFICIENTS.
REMARK   3   CORRELATION COEFFICIENT FO-FC      : 0.955
REMARK   3   CORRELATION COEFFICIENT FO-FC FREE : 0.946
REMARK   3
REMARK   3  X-RAY WEIGHT : 6.01
REMARK   3
REMARK   3  GEOMETRY FUNCTION.                                                  
REMARK   3   RESTRAINT LIBRARIES.                                               
REMARK   3    NUMBER OF LIBRARIES USED :  10                                    
REMARK   3    LIBRARY  1 : protgeo_eh99.dat (V1.6.4.20) 20220523  STANDARD      
REMARK   3                 AMINO ACID DICTIONARY. BONDS AND ANGLES FROM         
REMARK   3                 ENGH AND HUBER EH99. OTHER VALUES BASED ON           
REMARK   3                 PREVIOUS TNT OR TAKEN FROM CCP4. INCLUDES            
REMARK   3                 HYDROGEN ATOMS.                                      
REMARK   3    LIBRARY  2 : exoticaa.dat (V1.3.4.16) 20220523  COLLECTION        
REMARK   3                 OF NON-STANDARD AMINO ACIDS, MAINLY EH91             
REMARK   3                 WITHOUT IDEAL DISTANCE INFO                          
REMARK   3    LIBRARY  3 : nuclgeo.dat (V1.13.4.9) 20221011                     
REMARK   3    LIBRARY  4 : bcorrel.dat (V1.15.10.2) 20190616                    
REMARK   3    LIBRARY  5 : contact.dat (V1.15.12.10) 20191121                   
REMARK   3    LIBRARY  6 : idealdist_contact.dat (V1.3.4.13) 20220125           
REMARK   3                 IDEAL-DISTANCE CONTACT TERM DATA AS USED IN          
REMARK   3                 PROLSQ. VALUES USED HERE ARE BASED ON DATA           
REMARK   3                 HARVESTING OF PDB AS OF 20190109.                    
REMARK   3    LIBRARY  7 : restraints for LIG (unknown) from cif                
REMARK   3                 dictionary Z4605084899.cif; generated by GRADE       
REMARK   3                 1.2.21 (Feb 03 2022) from SMILES                     
REMARK   3                 CN1C(C=C)=CC=[N+]1C using MOGUL 1.8.5(274361),       
REMARK   3                 CSD as541be, with quantum mechanics RM1              
REMARK   3    LIBRARY  8 : restraints for DMS (DIMETHYL SULFOXIDE) from         
REMARK   3                 cif dictionary DMS.cif; generated by grade2          
REMARK   3                 version 1.1.0a7 from                                 
REMARK   3                 PDB_chemical_components_definition_file              
REMARK   3                 ftp://ftp.ebi.ac.uk/pub/databases/msd/pdbechem_v     
REMARK   3                 2/D/DMS/DMS.cif using RDKit 2021.03.4                
REMARK   3                 ((DatabaseID PDB-DMS))                               
REMARK   3    LIBRARY  9 : restraints for SO4 (SULFATE ION) from cif            
REMARK   3                 dictionary SO4.cif; generated by grade2 version      
REMARK   3                 1.1.0a7 from                                         
REMARK   3                 PDB_chemical_components_definition_file              
REMARK   3                 ftp://ftp.ebi.ac.uk/pub/databases/msd/pdbechem_v     
REMARK   3                 2/S/SO4/SO4.cif using RDKit 2021.03.4                
REMARK   3                 ((DatabaseID PDB-SO4))                               
REMARK   3    LIBRARY 10 : assume.dat (V1.9.4.3) 20221011                       
REMARK   3                                                                      
REMARK   3   NUMBER OF GEOMETRIC FUNCTION TERMS DEFINED : 15                    
REMARK   3   TERM                          COUNT    WEIGHT   FUNCTION.          
REMARK   3    BOND LENGTHS              :   1637 ;   2.00 ;  HARMONIC           
REMARK   3    BOND ANGLES               :   2243 ;   2.00 ;  HARMONIC           
REMARK   3    TORSION ANGLES            :    555 ;   2.00 ;  SINUSOIDAL         
REMARK   3    TRIGONAL CARBON PLANES    :   NULL ;   NULL ;  NULL               
REMARK   3    GENERAL PLANES            :    292 ;   5.00 ;  HARMONIC           
REMARK   3    ISOTROPIC THERMAL FACTORS :   1637 ;  10.00 ;  HARMONIC           
REMARK   3    BAD NON-BONDED CONTACTS   :   NULL ;   NULL ;  NULL               
REMARK   3    IMPROPER TORSIONS         :   NULL ;   NULL ;  NULL               
REMARK   3    PSEUDOROTATION ANGLES     :   NULL ;   NULL ;  NULL               
REMARK   3    CHIRAL IMPROPER TORSION   :    208 ;   5.00 ;  SEMIHARMONIC       
REMARK   3    SUM OF OCCUPANCIES        :   NULL ;   NULL ;  NULL               
REMARK   3    UTILITY DISTANCES         :   NULL ;   NULL ;  NULL               
REMARK   3    UTILITY ANGLES            :   NULL ;   NULL ;  NULL               
REMARK   3    UTILITY TORSION           :   NULL ;   NULL ;  NULL               
REMARK   3    IDEAL-DIST CONTACT TERM   :   1389 ;   4.00 ;  SEMIHARMONIC       
REMARK   3                                                                      
REMARK   3   RMS DEVIATIONS FROM IDEAL VALUES.                                  
REMARK   3   BOND LENGTHS                       (A) : 0.011                     
REMARK   3   BOND ANGLES                  (DEGREES) : 1.12                      
REMARK   3   PEPTIDE OMEGA TORSION ANGLES (DEGREES) : 4.12                      
REMARK   3   OTHER TORSION ANGLES         (DEGREES) : 16.20                     
REMARK   3                                                                      
REMARK   3   SIMILARITY.                                                        
REMARK   3    NCS.                                                              
REMARK   3     NCS METHOD: NONE                                                 
REMARK   3    TARGET RESTRAINTS.                                                
REMARK   3     TARGET REPRESENTATION : NONE                                     
REMARK   3     TARGET STRUCTURE : NULL                                          
REMARK   3                                                                      
REMARK   3  TLS DETAILS.                                                        
REMARK   3   NUMBER OF TLS GROUPS  :            2                               
REMARK   3                                                                      
REMARK   3   TLS GROUP :            1                                           
REMARK   3    SET : { A|* }                                                     
REMARK   3    ORIGIN FOR THE GROUP (A):  -15.0793   -1.2083  -20.0964           
REMARK   3    T TENSOR                                                          
REMARK   3     T11:    0.0410 T22:    0.0233                                    
REMARK   3     T33:   -0.1523 T12:    0.1475                                    
REMARK   3     T13:    0.0811 T23:    0.0533                                    
REMARK   3    L TENSOR                                                          
REMARK   3     L11:    2.5007 L22:    2.9843                                    
REMARK   3     L33:    2.8445 L12:   -1.4829                                    
REMARK   3     L13:    1.0074 L23:    0.2515                                    
REMARK   3    S TENSOR                                                          
REMARK   3     S11:    0.4050 S12:    0.4312 S13:    0.1936                     
REMARK   3     S21:   -0.5370 S22:   -0.3464 S23:   -0.1727                     
REMARK   3     S31:   -0.0337 S32:    0.5252 S33:   -0.0585                     
REMARK   3                                                                      
REMARK   3   TLS GROUP :            2                                           
REMARK   3    SET : { B|* }                                                     
REMARK   3    ORIGIN FOR THE GROUP (A):  -18.6837    1.2568  -15.8964           
REMARK   3    T TENSOR                                                          
REMARK   3     T11:    0.0847 T22:   -0.0038                                    
REMARK   3     T33:   -0.0227 T12:    0.1117                                    
REMARK   3     T13:    0.0170 T23:    0.0185                                    
REMARK   3    L TENSOR                                                          
REMARK   3     L11:    1.0508 L22:    1.0435                                    
REMARK   3     L33:    1.8536 L12:   -0.9135                                    
REMARK   3     L13:    0.6424 L23:    0.0944                                    
REMARK   3    S TENSOR                                                          
REMARK   3     S11:    0.2503 S12:    0.1176 S13:    0.0507                     
REMARK   3     S21:   -0.1832 S22:   -0.2366 S23:    0.0508                     
REMARK   3     S31:   -0.0461 S32:    0.2063 S33:   -0.0136                     
REMARK   3                                                                      
REMARK   3  REFINEMENT NOTES.                                                   
REMARK   3   NUMBER OF REFINEMENT NOTES :   1                                   
REMARK   3   NOTE   1 : IDEAL-DIST CONTACT TERM CONTACT SETUP. ALL ATOMS        
REMARK   3               HAVE CCP4 ATOM TYPE FROM LIBRARY                       
REMARK   3
REMARK   3  OTHER REFINEMENT REMARKS: NULL
REMARK   3
REMARK 290                                                            
REMARK 290 CRYSTALLOGRAPHIC SYMMETRY                                  
REMARK 290 SYMMETRY OPERATORS FOR SPACE GROUP: P 43 2 2               
REMARK 290                                                            
REMARK 290      SYMOP   SYMMETRY                                      
REMARK 290     NNNMMM   OPERATOR                                      
REMARK 290       1555   X,Y,Z                                         
REMARK 290       2555   -X,-Y,1/2+Z                                   
REMARK 290       3555   -Y,X,3/4+Z                                    
REMARK 290       4555   Y,-X,1/4+Z                                    
REMARK 290       5555   -X,Y,-Z                                       
REMARK 290       6555   X,-Y,1/2-Z                                    
REMARK 290       7555   Y,X,1/4-Z                                     
REMARK 290       8555   -Y,-X,3/4-Z                                   
REMARK 290                                                            
REMARK 290     WHERE NNN -> OPERATOR NUMBER                           
REMARK 290           MMM -> TRANSLATION VECTOR                        
REMARK 290                                                            
REMARK 290 CRYSTALLOGRAPHIC SYMMETRY TRANSFORMATIONS                  
REMARK 290 THE FOLLOWING TRANSFORMATIONS OPERATE ON THE ATOM/HETATM   
REMARK 290 RECORDS IN THIS ENTRY TO PRODUCE CRYSTALLOGRAPHICALLY      
REMARK 290 RELATED MOLECULES.                                         
REMARK 290   SMTRY1   1  1.000000  0.000000  0.000000        0.00000
REMARK 290   SMTRY2   1  0.000000  1.000000  0.000000        0.00000
REMARK 290   SMTRY3   1  0.000000  0.000000  1.000000        0.00000
REMARK 290   SMTRY1   2 -1.000000  0.000000  0.000000        0.00000
REMARK 290   SMTRY2   2  0.000000 -1.000000  0.000000        0.00000
REMARK 290   SMTRY3   2  0.000000  0.000000  1.000000      108.46100
REMARK 290   SMTRY1   3  0.000000 -1.000000  0.000000        0.00000
REMARK 290   SMTRY2   3  1.000000  0.000000  0.000000        0.00000
REMARK 290   SMTRY3   3  0.000000  0.000000  1.000000      162.69150
REMARK 290   SMTRY1   4  0.000000  1.000000  0.000000        0.00000
REMARK 290   SMTRY2   4 -1.000000  0.000000  0.000000        0.00000
REMARK 290   SMTRY3   4  0.000000  0.000000  1.000000       54.23050
REMARK 290   SMTRY1   5 -1.000000  0.000000  0.000000        0.00000
REMARK 290   SMTRY2   5  0.000000  1.000000  0.000000        0.00000
REMARK 290   SMTRY3   5  0.000000  0.000000 -1.000000        0.00000
REMARK 290   SMTRY1   6  1.000000  0.000000  0.000000        0.00000
REMARK 290   SMTRY2   6  0.000000 -1.000000  0.000000        0.00000
REMARK 290   SMTRY3   6  0.000000  0.000000 -1.000000      108.46100
REMARK 290   SMTRY1   7  0.000000  1.000000  0.000000        0.00000
REMARK 290   SMTRY2   7  1.000000  0.000000  0.000000        0.00000
REMARK 290   SMTRY3   7  0.000000  0.000000 -1.000000       54.23050
REMARK 290   SMTRY1   8  0.000000 -1.000000  0.000000        0.00000
REMARK 290   SMTRY2   8 -1.000000  0.000000  0.000000        0.00000
REMARK 290   SMTRY3   8  0.000000  0.000000 -1.000000      162.69150
REMARK 290                                                            
REMARK 290 REMARK: NULL                                               
CRYST1   42.620   42.620  216.922  90.00  90.00  90.00 P 43 2 2                 


$$$$
Zx0601a_ligand
  PyMOL3.0          3D                             0

  9  9  0  0  0  0  0  0  0  0999 V2000
  -10.7100    4.2660  -18.3520 C   0  0  0  0  0  0  0  0  0  0  0  0
   -6.5870    4.8830  -16.7470 N   0  3  0  0  0  0  0  0  0  0  0  0
   -9.4560    4.4120  -18.6960 C   0  0  0  0  0  0  0  0  0  0  0  0
   -7.1770    4.9130  -17.9900 N   0  0  0  0  0  0  0  0  0  0  0  0
   -8.4550    4.5820  -17.7100 C   0  0  0  0  0  0  0  0  0  0  0  0
   -8.6660    4.3670  -16.3350 C   0  0  0  0  0  0  0  0  0  0  0  0
   -7.4430    4.5650  -15.7600 C   0  0  0  0  0  0  0  0  0  0  0  0
   -5.1640    5.1510  -16.5360 C   0  0  0  0  0  0  0  0  0  0  0  0
   -6.5030    5.2290  -19.2490 C   0  0  0  0  0  0  0  0  0  0  0  0
  1  3  1  0  0  0  0
  2  4  4  0  0  0  0
  2  8  1  0  0  0  0
  3  5  1  0  0  0  0
  4  9  1  0  0  0  0
  4  5  4  0  0  0  0
  5  6  4  0  0  0  0
  6  7  4  0  0  0  0
  2  7  4  0  0  0  0
M  END
>  <pdb_header>
COMPND    XX01ZVNS2B-x0601_B_301_XX01ZVNS2B-x1291+B+301+1


$$$$
Zx0605a
  PyMOL3.0          3D                             0

  9  9  0  0  0  0  0  0  0  0999 V2000
   -6.7070    4.6980  -16.2960 N   0  3  0  0  0  0  0  0  0  0  0  0
   -5.9640    4.7020  -15.0180 C   0  0  0  0  0  0  0  0  0  0  0  0
   -6.0340    4.8450  -17.4570 C   0  0  0  0  0  0  0  0  0  0  0  0
   -6.7080    4.8460  -18.6560 C   0  0  0  0  0  0  0  0  0  0  0  0
   -8.0850    4.6970  -18.6720 C   0  0  0  0  0  0  0  0  0  0  0  0
   -8.7970    4.5500  -17.4880 C   0  0  0  0  0  0  0  0  0  0  0  0
  -10.2680    4.4460  -17.5110 C   0  0  0  0  0  0  0  0  0  0  0  0
  -11.0050    4.1640  -18.5370 C   0  0  0  0  0  0  0  0  0  0  0  0
   -8.0490    4.5480  -16.2750 C   0  0  0  0  0  0  0  0  0  0  0  0
  1  2  1  0  0  0  0
  1  3  4  0  0  0  0
  3  4  4  0  0  0  0
  4  5  4  0  0  0  0
  5  6  4  0  0  0  0
  6  9  4  0  0  0  0
  6  7  1  0  0  0  0
  7  8  1  0  0  0  0
  1  9  4  0  0  0  0
M  END
>  <pdb_header>
HEADER    ----                                    18-MAY-23                     
TITLE     ---                                                                   
EXPDTA    X-RAY DIFFRACTION                                                     
REMARK --------------------- added by autoBUSTER ---------------------------------START
REMARK run at   = Fri Sep 29 18:09:52 BST 2023
REMARK     in   = /dls/labxchem/data/lb32627/lb32627-65/processing/analysis/model_building/XX01ZVNS2B-x0605
REMARK     user = kyf22269
REMARK     cmd  = \
REMARK            /dls_sw/apps/GPhL/BUSTER/20230726/autoBUSTER/bin/linux64/refine \
REMARK            -p \
REMARK            /dls/labxchem/data/lb32627/lb32627-65/processing/analysis/model_building/XX01ZVNS2B-x0605/cootOut/Refi
REMARK            -m \
REMARK            /dls/labxchem/data/lb32627/lb32627-65/processing/analysis/model_building/XX01ZVNS2B-x0605/XX01ZVNS2B-x
REMARK            -l \
REMARK            /dls/labxchem/data/lb32627/lb32627-65/processing/analysis/model_building/XX01ZVNS2B-x0605/Z1269221363.
REMARK            -autoncs -M TLSbasic -d Refine_6
REMARK Files used:
REMARK   PDB              = Refine_6/pdbchk.pdb
REMARK   MTZ              = /dls/labxchem/data/lb32627/lb32627-65/processing/analysis/model_building/XX01ZVNS2B-x0605/XX
REMARK output written to subdirectory = Refine_6
REMARK best refinement for F,SIGF with R/Rfree 0.2259/0.2599
REMARK header records are copied from input PDB file (apart from REMARK 3!)
REMARK --------------------- added by autoBUSTER -----------------------------------END
REMARK --------------------- added by autoBUSTER -------------------------------
REMARK run at   = Thu Jun 15 12:27:58 BST 2023                                  
REMARK     in   = /dls/labxchem/data/lb32627/lb32627-65/processing/analysis/mode
REMARK     user = xau79897                                                      
REMARK     cmd  = \                                                             
REMARK            /dls_sw/apps/GPhL/BUSTER/20230614/autoBUSTER/bin/linux64/refin
REMARK            -p \                                                          
REMARK            /dls/labxchem/data/lb32627/lb32627-65/processing/analysis/mode
REMARK            -m \                                                          
REMARK            /dls/labxchem/data/lb32627/lb32627-65/processing/analysis/mode
REMARK            -l \                                                          
REMARK            /dls/labxchem/data/lb32627/lb32627-65/processing/analysis/mode
REMARK            -autoncs -M TLSbasic StopOnGellySanityCheckError=no -d \      
REMARK            Refine_5                                                      
REMARK Files used:                                                              
REMARK   PDB              = Refine_5/pdbchk.pdb                                 
REMARK   MTZ              = /dls/labxchem/data/lb32627/lb32627-65/processing/ana
REMARK output written to subdirectory = Refine_5                                
REMARK best refinement for F,SIGF with R/Rfree 0.2254/0.2601                    
REMARK header records are copied from input PDB file (apart from REMARK 3!)     
REMARK --------------------- added by autoBUSTER -------------------------------
REMARK --------------------- added by autoBUSTER -------------------------------
REMARK run at   = Wed May 24 14:20:10 BST 2023                                  
REMARK     in   = /dls/labxchem/data/lb32627/lb32627-65/processing/analysis/mode
REMARK     user = xau79897                                                      
REMARK     cmd  = \                                                             
REMARK            /dls_sw/apps/GPhL/BUSTER/20230217/autoBUSTER/bin/linux64/refin
REMARK            -p \                                                          
REMARK            /dls/labxchem/data/lb32627/lb32627-65/processing/analysis/mode
REMARK            -m \                                                          
REMARK            /dls/labxchem/data/lb32627/lb32627-65/processing/analysis/mode
REMARK            -l \                                                          
REMARK            /dls/labxchem/data/lb32627/lb32627-65/processing/analysis/mode
REMARK            -autoncs -M TLSbasic -WAT -B user -Gelly gelly.dat \          
REMARK            StopOnGellySanityCheckError=no -d Refine_4                    
REMARK Files used:                                                              
REMARK   PDB              = Refine_4/pdbchk.pdb                                 
REMARK   MTZ              = /dls/labxchem/data/lb32627/lb32627-65/processing/ana
REMARK   Gelly commands       = /dls/labxchem/data/lb32627/lb32627-65/processing
REMARK output written to subdirectory = Refine_4                                
REMARK best refinement for F,SIGF with R/Rfree 0.2250/0.2586                    
REMARK header records are copied from input PDB file (apart from REMARK 3!)     
REMARK --------------------- added by autoBUSTER -------------------------------
REMARK --------------------- added by autoBUSTER -------------------------------
REMARK run at   = Tue May 23 17:08:33 BST 2023                                  
REMARK     in   = /dls/labxchem/data/lb32627/lb32627-65/processing/analysis/mode
REMARK     user = xau79897                                                      
REMARK     cmd  = \                                                             
REMARK            /dls_sw/apps/GPhL/BUSTER/20230217/autoBUSTER/bin/linux64/refin
REMARK            -p \                                                          
REMARK            /dls/labxchem/data/lb32627/lb32627-65/processing/analysis/mode
REMARK            -m \                                                          
REMARK            /dls/labxchem/data/lb32627/lb32627-65/processing/analysis/mode
REMARK            -l \                                                          
REMARK            /dls/labxchem/data/lb32627/lb32627-65/processing/analysis/mode
REMARK            -autoncs -M TLSbasic -d Refine_3                              
REMARK Files used:                                                              
REMARK   PDB              = Refine_3/pdbchk.pdb                                 
REMARK   MTZ              = /dls/labxchem/data/lb32627/lb32627-65/processing/ana
REMARK output written to subdirectory = Refine_3                                
REMARK best refinement for F,SIGF with R/Rfree 0.2320/0.2536                    
REMARK header records are copied from input PDB file (apart from REMARK 3!)     
REMARK --------------------- added by autoBUSTER -------------------------------
REMARK   2                                                            
REMARK   2 RESOLUTION.    1.46 ANGSTROMS.
REMARK   3
REMARK   3 REFINEMENT.
REMARK   3   PROGRAM     : BUSTER 2.10.4 (26-JUL-2023)
REMARK   3   AUTHORS     : BRICOGNE,BLANC,BRANDL,FLENSBURG,KELLER,
REMARK   3               : PACIOREK,ROVERSI,SHARFF,SMART,VONRHEIN,WOMACK;
REMARK   3               : MATTHEWS,TEN EYCK,TRONRUD
REMARK   3
REMARK   3  DATA USED IN REFINEMENT.
REMARK   3   RESOLUTION RANGE HIGH (ANGSTROMS) : 1.462
REMARK   3   RESOLUTION RANGE LOW  (ANGSTROMS) : 33.52
REMARK   3   DATA CUTOFF            (SIGMA(F)) : 0.000
REMARK   3   COMPLETENESS FOR RANGE        (%) : 92.8
REMARK   3   NUMBER OF REFLECTIONS             : 33467
REMARK   3
REMARK   3  FIT TO DATA USED IN REFINEMENT.
REMARK   3   CROSS-VALIDATION METHOD          : THROUGHOUT
REMARK   3   FREE R VALUE TEST SET SELECTION  : RANDOM
REMARK   3   R VALUE     (WORKING + TEST SET) : 0.2276
REMARK   3   R VALUE            (WORKING SET) : 0.2259
REMARK   3   FREE R VALUE                     : 0.2599
REMARK   3   FREE R VALUE TEST SET SIZE   (%) : 5.060
REMARK   3   FREE R VALUE TEST SET COUNT      : 1694
REMARK   3   ESTIMATED ERROR OF FREE R VALUE  : NULL
REMARK   3
REMARK   3  FIT IN THE HIGHEST RESOLUTION BIN.
REMARK   3   TOTAL NUMBER OF BINS USED           : 51
REMARK   3   BIN RESOLUTION RANGE HIGH       (A) : 1.46
REMARK   3   BIN RESOLUTION RANGE LOW        (A) : 1.50
REMARK   3   BIN COMPLETENESS (WORKING+TEST) (%) : 23.93
REMARK   3   REFLECTIONS IN BIN   (WORKING+TEST) : 670
REMARK   3   BIN R VALUE          (WORKING+TEST) : 0.6149
REMARK   3   REFLECTIONS IN BIN    (WORKING SET) : 633
REMARK   3   BIN R VALUE           (WORKING SET) : 0.6171
REMARK   3   BIN FREE R VALUE                    : 0.5768
REMARK   3   BIN FREE R VALUE TEST SET SIZE  (%) : 5.52
REMARK   3   BIN FREE R VALUE TEST SET COUNT     : 37
REMARK   3   ESTIMATED ERROR OF BIN FREE R VALUE : NULL
REMARK   3
REMARK   3  NUMBER OF NON-HYDROGEN ATOMS USED IN REFINEMENT.
REMARK   3   PROTEIN ATOMS            : 1476
REMARK   3   NUCLEIC ACID ATOMS       : 0
REMARK   3   HETEROGEN ATOMS          : 17
REMARK   3   SOLVENT ATOMS            : 129
REMARK   3
REMARK   3  B VALUES.
REMARK   3   FROM WILSON PLOT           (A**2) : 32.44
REMARK   3   MEAN B VALUE      (OVERALL, A**2) : 48.83
REMARK   3   OVERALL ANISOTROPIC B VALUE.
REMARK   3    B11 (A**2) : -4.81530
REMARK   3    B22 (A**2) : -4.81530
REMARK   3    B33 (A**2) : 9.63050
REMARK   3    B12 (A**2) : 0.00000
REMARK   3    B13 (A**2) : 0.00000
REMARK   3    B23 (A**2) : 0.00000
REMARK   3
REMARK   3  ESTIMATED COORDINATE ERROR.
REMARK   3   ESD FROM LUZZATI PLOT                    (A) : 0.33
REMARK   3   DPI (BLOW EQ-10) BASED ON R VALUE        (A) : 0.090
REMARK   3   DPI (BLOW EQ-9) BASED ON FREE R VALUE    (A) : 0.091
REMARK   3   DPI (CRUICKSHANK) BASED ON R VALUE       (A) : 0.085
REMARK   3   DPI (CRUICKSHANK) BASED ON FREE R VALUE  (A) : 0.087
REMARK   3
REMARK   3   REFERENCES: BLOW, D. (2002) ACTA CRYST D58, 792-797
REMARK   3               CRUICKSHANK, D.W.J. (1999) ACTA CRYST D55, 583-601
REMARK   3
REMARK   3  CORRELATION COEFFICIENTS.
REMARK   3   CORRELATION COEFFICIENT FO-FC      : 0.951
REMARK   3   CORRELATION COEFFICIENT FO-FC FREE : 0.940
REMARK   3
REMARK   3  X-RAY WEIGHT : 5.90
REMARK   3
REMARK   3  GEOMETRY FUNCTION.                                                  
REMARK   3   RESTRAINT LIBRARIES.                                               
REMARK   3    NUMBER OF LIBRARIES USED :   9                                    
REMARK   3    LIBRARY  1 : protgeo_eh99.dat (V1.6.4.20) 20220523  STANDARD      
REMARK   3                 AMINO ACID DICTIONARY. BONDS AND ANGLES FROM         
REMARK   3                 ENGH AND HUBER EH99. OTHER VALUES BASED ON           
REMARK   3                 PREVIOUS TNT OR TAKEN FROM CCP4. INCLUDES            
REMARK   3                 HYDROGEN ATOMS.                                      
REMARK   3    LIBRARY  2 : exoticaa.dat (V1.3.4.16) 20220523  COLLECTION        
REMARK   3                 OF NON-STANDARD AMINO ACIDS, MAINLY EH91             
REMARK   3                 WITHOUT IDEAL DISTANCE INFO                          
REMARK   3    LIBRARY  3 : nuclgeo.dat (V1.13.4.9) 20221011                     
REMARK   3    LIBRARY  4 : bcorrel.dat (V1.15.10.2) 20190616                    
REMARK   3    LIBRARY  5 : contact.dat (V1.15.12.10) 20191121                   
REMARK   3    LIBRARY  6 : idealdist_contact.dat (V1.3.4.14) 20230724           
REMARK   3                 IDEAL-DISTANCE CONTACT TERM DATA AS USED IN          
REMARK   3                 PROLSQ. VALUES USED HERE ARE BASEd ON DATA           
REMARK   3                 HARVESTING OF PDB AS OF 20190109                     
REMARK   3    LIBRARY  7 : restraints for LIG (unknown) from cif                
REMARK   3                 dictionary Z1269221363.cif; generated by GRADE       
REMARK   3                 1.2.21 (Feb 03 2022) from SMILES                     
REMARK   3                 C[N+]=1C=CC=C(C=C)C1 using MOGUL 1.8.5(274361),      
REMARK   3                 CSD as541be, with quantum mechanics RM1              
REMARK   3    LIBRARY  8 : restraints for DMS (DIMETHYL SULFOXIDE) from         
REMARK   3                 cif dictionary DMS.cif; generated by grade2          
REMARK   3                 version 1.1.0a7 from                                 
REMARK   3                 PDB_chemical_components_definition_file              
REMARK   3                 ftp://ftp.ebi.ac.uk/pub/databases/msd/pdbechem_v     
REMARK   3                 2/D/DMS/DMS.cif using RDKit 2021.03.4                
REMARK   3                 ((DatabaseID PDB-DMS))                               
REMARK   3    LIBRARY  9 : assume.dat (V1.9.4.3) 20221011                       
REMARK   3                                                                      
REMARK   3   NUMBER OF GEOMETRIC FUNCTION TERMS DEFINED : 15                    
REMARK   3   TERM                          COUNT    WEIGHT   FUNCTION.          
REMARK   3    BOND LENGTHS              :   1601 ;   2.00 ;  HARMONIC           
REMARK   3    BOND ANGLES               :   2183 ;   2.00 ;  HARMONIC           
REMARK   3    TORSION ANGLES            :    539 ;   2.00 ;  SINUSOIDAL         
REMARK   3    TRIGONAL CARBON PLANES    :   NULL ;   NULL ;  NULL               
REMARK   3    GENERAL PLANES            :    282 ;   5.00 ;  HARMONIC           
REMARK   3    ISOTROPIC THERMAL FACTORS :   1601 ;  10.00 ;  HARMONIC           
REMARK   3    BAD NON-BONDED CONTACTS   :   NULL ;   NULL ;  NULL               
REMARK   3    IMPROPER TORSIONS         :   NULL ;   NULL ;  NULL               
REMARK   3    PSEUDOROTATION ANGLES     :   NULL ;   NULL ;  NULL               
REMARK   3    CHIRAL IMPROPER TORSION   :    198 ;   5.00 ;  SEMIHARMONIC       
REMARK   3    SUM OF OCCUPANCIES        :   NULL ;   NULL ;  NULL               
REMARK   3    UTILITY DISTANCES         :   NULL ;   NULL ;  NULL               
REMARK   3    UTILITY ANGLES            :   NULL ;   NULL ;  NULL               
REMARK   3    UTILITY TORSION           :   NULL ;   NULL ;  NULL               
REMARK   3    IDEAL-DIST CONTACT TERM   :   1319 ;   4.00 ;  SEMIHARMONIC       
REMARK   3                                                                      
REMARK   3   RMS DEVIATIONS FROM IDEAL VALUES.                                  
REMARK   3   BOND LENGTHS                       (A) : 0.011                     
REMARK   3   BOND ANGLES                  (DEGREES) : 1.02                      
REMARK   3   PEPTIDE OMEGA TORSION ANGLES (DEGREES) : 4.05                      
REMARK   3   OTHER TORSION ANGLES         (DEGREES) : 15.89                     
REMARK   3                                                                      
REMARK   3   SIMILARITY.                                                        
REMARK   3    NCS.                                                              
REMARK   3     NCS METHOD: NONE                                                 
REMARK   3    TARGET RESTRAINTS.                                                
REMARK   3     TARGET REPRESENTATION : NONE                                     
REMARK   3     TARGET STRUCTURE : NULL                                          
REMARK   3                                                                      
REMARK   3  TLS DETAILS.                                                        
REMARK   3   NUMBER OF TLS GROUPS  :            2                               
REMARK   3                                                                      
REMARK   3   TLS GROUP :            1                                           
REMARK   3    SET : { A|* }                                                     
REMARK   3    ORIGIN FOR THE GROUP (A):  -14.1010   -1.2709  -19.5545           
REMARK   3    T TENSOR                                                          
REMARK   3     T11:    0.0138 T22:    0.0056                                    
REMARK   3     T33:   -0.1867 T12:    0.1279                                    
REMARK   3     T13:    0.1256 T23:    0.0914                                    
REMARK   3    L TENSOR                                                          
REMARK   3     L11:    2.7942 L22:    3.9880                                    
REMARK   3     L33:    3.5346 L12:   -1.8562                                    
REMARK   3     L13:    1.0097 L23:    0.6492                                    
REMARK   3    S TENSOR                                                          
REMARK   3     S11:    0.4111 S12:    0.4189 S13:    0.2700                     
REMARK   3     S21:   -0.5924 S22:   -0.3660 S23:   -0.2922                     
REMARK   3     S31:   -0.0711 S32:    0.6044 S33:   -0.0450                     
REMARK   3                                                                      
REMARK   3   TLS GROUP :            2                                           
REMARK   3    SET : { B|* }                                                     
REMARK   3    ORIGIN FOR THE GROUP (A):  -18.6796    1.3428  -15.4806           
REMARK   3    T TENSOR                                                          
REMARK   3     T11:    0.1016 T22:    0.0035                                    
REMARK   3     T33:   -0.0365 T12:    0.1245                                    
REMARK   3     T13:    0.0306 T23:    0.0257                                    
REMARK   3    L TENSOR                                                          
REMARK   3     L11:    1.1166 L22:    1.3593                                    
REMARK   3     L33:    1.9670 L12:   -0.9443                                    
REMARK   3     L13:    0.8464 L23:   -0.0147                                    
REMARK   3    S TENSOR                                                          
REMARK   3     S11:    0.2852 S12:    0.1252 S13:    0.0715                     
REMARK   3     S21:   -0.2209 S22:   -0.3014 S23:    0.0420                     
REMARK   3     S31:   -0.0393 S32:    0.2208 S33:    0.0162                     
REMARK   3                                                                      
REMARK   3  REFINEMENT NOTES.                                                   
REMARK   3   NUMBER OF REFINEMENT NOTES :   1                                   
REMARK   3   NOTE   1 : IDEAL-DIST CONTACT TERM CONTACT SETUP. ALL ATOMS        
REMARK   3               HAVE CCP4 ATOM TYPE FROM LIBRARY                       
REMARK   3
REMARK   3  OTHER REFINEMENT REMARKS: NULL
REMARK   3
REMARK 290                                                            
REMARK 290 CRYSTALLOGRAPHIC SYMMETRY                                  
REMARK 290 SYMMETRY OPERATORS FOR SPACE GROUP: P 43 2 2               
REMARK 290                                                            
REMARK 290      SYMOP   SYMMETRY                                      
REMARK 290     NNNMMM   OPERATOR                                      
REMARK 290       1555   X,Y,Z                                         
REMARK 290       2555   -X,-Y,1/2+Z                                   
REMARK 290       3555   -Y,X,3/4+Z                                    
REMARK 290       4555   Y,-X,1/4+Z                                    
REMARK 290       5555   -X,Y,-Z                                       
REMARK 290       6555   X,-Y,1/2-Z                                    
REMARK 290       7555   Y,X,1/4-Z                                     
REMARK 290       8555   -Y,-X,3/4-Z                                   
REMARK 290                                                            
REMARK 290     WHERE NNN -> OPERATOR NUMBER                           
REMARK 290           MMM -> TRANSLATION VECTOR                        
REMARK 290                                                            
REMARK 290 CRYSTALLOGRAPHIC SYMMETRY TRANSFORMATIONS                  
REMARK 290 THE FOLLOWING TRANSFORMATIONS OPERATE ON THE ATOM/HETATM   
REMARK 290 RECORDS IN THIS ENTRY TO PRODUCE CRYSTALLOGRAPHICALLY      
REMARK 290 RELATED MOLECULES.                                         
REMARK 290   SMTRY1   1  1.000000  0.000000  0.000000        0.00000
REMARK 290   SMTRY2   1  0.000000  1.000000  0.000000        0.00000
REMARK 290   SMTRY3   1  0.000000  0.000000  1.000000        0.00000
REMARK 290   SMTRY1   2 -1.000000  0.000000  0.000000        0.00000
REMARK 290   SMTRY2   2  0.000000 -1.000000  0.000000        0.00000
REMARK 290   SMTRY3   2  0.000000  0.000000  1.000000      108.44000
REMARK 290   SMTRY1   3  0.000000 -1.000000  0.000000        0.00000
REMARK 290   SMTRY2   3  1.000000  0.000000  0.000000        0.00000
REMARK 290   SMTRY3   3  0.000000  0.000000  1.000000      162.66000
REMARK 290   SMTRY1   4  0.000000  1.000000  0.000000        0.00000
REMARK 290   SMTRY2   4 -1.000000  0.000000  0.000000        0.00000
REMARK 290   SMTRY3   4  0.000000  0.000000  1.000000       54.22000
REMARK 290   SMTRY1   5 -1.000000  0.000000  0.000000        0.00000
REMARK 290   SMTRY2   5  0.000000  1.000000  0.000000        0.00000
REMARK 290   SMTRY3   5  0.000000  0.000000 -1.000000        0.00000
REMARK 290   SMTRY1   6  1.000000  0.000000  0.000000        0.00000
REMARK 290   SMTRY2   6  0.000000 -1.000000  0.000000        0.00000
REMARK 290   SMTRY3   6  0.000000  0.000000 -1.000000      108.44000
REMARK 290   SMTRY1   7  0.000000  1.000000  0.000000        0.00000
REMARK 290   SMTRY2   7  1.000000  0.000000  0.000000        0.00000
REMARK 290   SMTRY3   7  0.000000  0.000000 -1.000000       54.22000
REMARK 290   SMTRY1   8  0.000000 -1.000000  0.000000        0.00000
REMARK 290   SMTRY2   8 -1.000000  0.000000  0.000000        0.00000
REMARK 290   SMTRY3   8  0.000000  0.000000 -1.000000      162.66000
REMARK 290                                                            
REMARK 290 REMARK: NULL                                               
CRYST1   42.648   42.648  216.880  90.00  90.00  90.00 P 43 2 2                 


$$$$
Zx0605a_ligand
  PyMOL3.0          3D                             0

  9  9  0  0  0  0  0  0  0  0999 V2000
  -11.0050    4.1640  -18.5370 C   0  0  0  0  0  0  0  0  0  0  0  0
   -6.7070    4.6980  -16.2960 N   0  3  0  0  0  0  0  0  0  0  0  0
  -10.2680    4.4460  -17.5110 C   0  0  0  0  0  0  0  0  0  0  0  0
   -8.7970    4.5500  -17.4880 C   0  0  0  0  0  0  0  0  0  0  0  0
   -8.0850    4.6970  -18.6720 C   0  0  0  0  0  0  0  0  0  0  0  0
   -6.7080    4.8460  -18.6560 C   0  0  0  0  0  0  0  0  0  0  0  0
   -6.0340    4.8450  -17.4570 C   0  0  0  0  0  0  0  0  0  0  0  0
   -8.0490    4.5480  -16.2750 C   0  0  0  0  0  0  0  0  0  0  0  0
   -5.9640    4.7020  -15.0180 C   0  0  0  0  0  0  0  0  0  0  0  0
  1  3  1  0  0  0  0
  2  9  1  0  0  0  0
  3  4  1  0  0  0  0
  4  5  4  0  0  0  0
  4  8  4  0  0  0  0
  5  6  4  0  0  0  0
  6  7  4  0  0  0  0
  2  7  4  0  0  0  0
  2  8  4  0  0  0  0
M  END
>  <pdb_header>
COMPND    XX01ZVNS2B-x0605_B_301_XX01ZVNS2B-x1291+B+301+1


$$$$
Zx0673a
  PyMOL3.0          3D                             0

 30 32  0  0  0  0  0  0  0  0999 V2000
   -6.4000    5.7860  -17.1460 N   0  0  0  0  0  0  0  0  0  0  0  0
   -5.3990    5.5650  -16.2860 C   0  0  0  0  0  0  0  0  0  0  0  0
   -5.5580    5.4440  -15.0690 O   0  0  0  0  0  0  0  0  0  0  0  0
   -7.4360    4.7910  -17.4060 C   0  0  0  0  0  0  0  0  0  0  0  0
   -9.7120    4.1500  -16.7140 N   0  0  0  0  0  0  0  0  0  0  0  0
  -11.4070    3.8970  -18.1180 O   0  0  0  0  0  0  0  0  0  0  0  0
   -8.0130    4.9800  -18.8040 C   0  0  0  0  0  0  0  0  0  0  0  0
   -3.9260    4.9810  -18.2080 N   0  0  0  0  0  0  0  0  0  0  0  0
   -9.2690    4.1540  -19.0990 C   0  0  0  0  0  0  0  0  0  0  0  0
  -10.2060    4.0410  -17.9360 C   0  0  0  0  0  0  0  0  0  0  0  0
   -8.5190    4.9090  -16.3470 C   0  0  0  0  0  0  0  0  0  0  0  0
   -4.0600    5.4490  -16.9110 C   0  0  0  0  0  0  0  0  0  0  0  0
   -2.9020    5.7820  -16.2930 C   0  0  0  0  0  0  0  0  0  0  0  0
   -2.6680    4.9760  -18.5380 C   0  0  0  0  0  0  0  0  0  0  0  0
   -1.5830    5.5210  -17.3360 S   0  0  0  0  0  0  0  0  0  0  0  0
   -8.0480    1.9910    1.2120 N   0  0  0  0  0  0  0  0  0  0  0  0
   -8.5130    3.0380    0.5020 C   0  0  0  0  0  0  0  0  0  0  0  0
   -7.9470    3.4780   -0.4970 O   0  0  0  0  0  0  0  0  0  0  0  0
   -7.1030    2.1440    2.3190 C   0  0  0  0  0  0  0  0  0  0  0  0
   -7.8350    0.2710    3.7150 N   0  0  0  0  0  0  0  0  0  0  0  0
   -6.7320   -1.6170    4.0700 O   0  0  0  0  0  0  0  0  0  0  0  0
   -5.8010    1.3620    2.0980 C   0  0  0  0  0  0  0  0  0  0  0  0
  -10.5450    4.4420    0.1630 N   0  0  0  0  0  0  0  0  0  0  0  0
   -5.7840   -0.1260    2.4840 C   0  0  0  0  0  0  0  0  0  0  0  0
   -6.8320   -0.5480    3.4730 C   0  0  0  0  0  0  0  0  0  0  0  0
   -7.7700    1.7250    3.6160 C   0  0  0  0  0  0  0  0  0  0  0  0
   -9.7740    3.6450    0.9990 C   0  0  0  0  0  0  0  0  0  0  0  0
  -10.2480    3.5090    2.2630 C   0  0  0  0  0  0  0  0  0  0  0  0
  -11.5760    4.8870    0.8180 C   0  0  0  0  0  0  0  0  0  0  0  0
  -11.6930    4.3890    2.4500 S   0  0  0  0  0  0  0  0  0  0  0  0
  1  2  1  0  0  0  0
  2  3  2  0  0  0  0
  2 12  1  0  0  0  0
  1  4  1  0  0  0  0
  5 11  1  0  0  0  0
  6 10  2  0  0  0  0
  4  7  1  0  0  0  0
  8 14  4  0  0  0  0
  7  9  1  0  0  0  0
  5 10  1  0  0  0  0
  9 10  1  0  0  0  0
  4 11  1  0  0  0  0
  8 12  4  0  0  0  0
 12 13  4  0  0  0  0
 14 15  4  0  0  0  0
 13 15  4  0  0  0  0
 16 17  1  0  0  0  0
 17 18  2  0  0  0  0
 17 27  1  0  0  0  0
 16 19  1  0  0  0  0
 20 26  1  0  0  0  0
 21 25  2  0  0  0  0
 19 22  1  0  0  0  0
 23 29  4  0  0  0  0
 22 24  1  0  0  0  0
 20 25  1  0  0  0  0
 24 25  1  0  0  0  0
 19 26  1  0  0  0  0
 23 27  4  0  0  0  0
 27 28  4  0  0  0  0
 29 30  4  0  0  0  0
 28 30  4  0  0  0  0
M  END
>  <pdb_header>
HEADER    ----                                    18-MAY-23                     
TITLE     ---                                                                   
EXPDTA    X-RAY DIFFRACTION                                                     
REMARK --------------------- added by autoBUSTER ---------------------------------START
REMARK run at   = Thu Aug 10 10:29:17 BST 2023
REMARK     in   = /dls/labxchem/data/lb32627/lb32627-65/processing/analysis/model_building/XX01ZVNS2B-x0673
REMARK     user = kyf22269
REMARK     cmd  = \
REMARK            /dls_sw/apps/GPhL/BUSTER/20230614/autoBUSTER/bin/linux64/refine \
REMARK            -p \
REMARK            /dls/labxchem/data/lb32627/lb32627-65/processing/analysis/model_building/XX01ZVNS2B-x0673/cootOut/Refi
REMARK            -m \
REMARK            /dls/labxchem/data/lb32627/lb32627-65/processing/analysis/model_building/XX01ZVNS2B-x0673/XX01ZVNS2B-x
REMARK            -l \
REMARK            /dls/labxchem/data/lb32627/lb32627-65/processing/analysis/model_building/XX01ZVNS2B-x0673/Z1102357527.
REMARK            -autoncs -M TLSbasic -d Refine_13
REMARK Files used:
REMARK   PDB              = Refine_13/pdbchk.pdb
REMARK   MTZ              = /dls/labxchem/data/lb32627/lb32627-65/processing/analysis/model_building/XX01ZVNS2B-x0673/XX
REMARK output written to subdirectory = Refine_13
REMARK best refinement for F,SIGF with R/Rfree 0.2292/0.2661
REMARK header records are copied from input PDB file (apart from REMARK 3!)
REMARK --------------------- added by autoBUSTER -----------------------------------END
REMARK --------------------- added by autoBUSTER -------------------------------
REMARK run at   = Wed Aug  9 14:21:39 BST 2023                                  
REMARK     in   = /dls/labxchem/data/lb32627/lb32627-65/processing/analysis/mode
REMARK     user = kyf22269                                                      
REMARK     cmd  = \                                                             
REMARK            /dls_sw/apps/GPhL/BUSTER/20230614/autoBUSTER/bin/linux64/refin
REMARK            -p \                                                          
REMARK            /dls/labxchem/data/lb32627/lb32627-65/processing/analysis/mode
REMARK            -m \                                                          
REMARK            /dls/labxchem/data/lb32627/lb32627-65/processing/analysis/mode
REMARK            -l \                                                          
REMARK            /dls/labxchem/data/lb32627/lb32627-65/processing/analysis/mode
REMARK            -autoncs -M TLSbasic -d Refine_12                             
REMARK Files used:                                                              
REMARK   PDB              = Refine_12/pdbchk.pdb                                
REMARK   MTZ              = /dls/labxchem/data/lb32627/lb32627-65/processing/ana
REMARK output written to subdirectory = Refine_12                               
REMARK best refinement for F,SIGF with R/Rfree 0.2291/0.2669                    
REMARK header records are copied from input PDB file (apart from REMARK 3!)     
REMARK --------------------- added by autoBUSTER -------------------------------
REMARK --------------------- added by autoBUSTER -------------------------------
REMARK run at   = Wed Aug  9 11:07:21 BST 2023                                  
REMARK     in   = /dls/labxchem/data/lb32627/lb32627-65/processing/analysis/mode
REMARK     user = kyf22269                                                      
REMARK     cmd  = \                                                             
REMARK            /dls_sw/apps/GPhL/BUSTER/20230614/autoBUSTER/bin/linux64/refin
REMARK            -p \                                                          
REMARK            /dls/labxchem/data/lb32627/lb32627-65/processing/analysis/mode
REMARK            -m \                                                          
REMARK            /dls/labxchem/data/lb32627/lb32627-65/processing/analysis/mode
REMARK            -l \                                                          
REMARK            /dls/labxchem/data/lb32627/lb32627-65/processing/analysis/mode
REMARK            -autoncs -M TLSbasic -d Refine_11                             
REMARK Files used:                                                              
REMARK   PDB              = Refine_11/pdbchk.pdb                                
REMARK   MTZ              = /dls/labxchem/data/lb32627/lb32627-65/processing/ana
REMARK output written to subdirectory = Refine_11                               
REMARK best refinement for F,SIGF with R/Rfree 0.2290/0.2660                    
REMARK header records are copied from input PDB file (apart from REMARK 3!)     
REMARK --------------------- added by autoBUSTER -------------------------------
REMARK --------------------- added by autoBUSTER -------------------------------
REMARK run at   = Fri Aug  4 18:17:27 BST 2023                                  
REMARK     in   = /dls/labxchem/data/lb32627/lb32627-65/processing/analysis/mode
REMARK     user = kyf22269                                                      
REMARK     cmd  = \                                                             
REMARK            /dls_sw/apps/GPhL/BUSTER/20230614/autoBUSTER/bin/linux64/refin
REMARK            -p \                                                          
REMARK            /dls/labxchem/data/lb32627/lb32627-65/processing/analysis/mode
REMARK            -m \                                                          
REMARK            /dls/labxchem/data/lb32627/lb32627-65/processing/analysis/mode
REMARK            -l \                                                          
REMARK            /dls/labxchem/data/lb32627/lb32627-65/processing/analysis/mode
REMARK            -autoncs -M TLSbasic -d Refine_10                             
REMARK Files used:                                                              
REMARK   PDB              = Refine_10/pdbchk.pdb                                
REMARK   MTZ              = /dls/labxchem/data/lb32627/lb32627-65/processing/ana
REMARK output written to subdirectory = Refine_10                               
REMARK best refinement for F,SIGF with R/Rfree 0.2294/0.2662                    
REMARK header records are copied from input PDB file (apart from REMARK 3!)     
REMARK --------------------- added by autoBUSTER -------------------------------
REMARK --------------------- added by autoBUSTER -------------------------------
REMARK run at   = Tue Aug  1 16:25:24 BST 2023                                  
REMARK     in   = /dls/labxchem/data/lb32627/lb32627-65/processing/analysis/mode
REMARK     user = kyf22269                                                      
REMARK     cmd  = \                                                             
REMARK            /dls_sw/apps/GPhL/BUSTER/20230614/autoBUSTER/bin/linux64/refin
REMARK            -p \                                                          
REMARK            /dls/labxchem/data/lb32627/lb32627-65/processing/analysis/mode
REMARK            -m \                                                          
REMARK            /dls/labxchem/data/lb32627/lb32627-65/processing/analysis/mode
REMARK            -l \                                                          
REMARK            /dls/labxchem/data/lb32627/lb32627-65/processing/analysis/mode
REMARK            -autoncs -M TLSbasic -d Refine_9                              
REMARK Files used:                                                              
REMARK   PDB              = Refine_9/pdbchk.pdb                                 
REMARK   MTZ              = /dls/labxchem/data/lb32627/lb32627-65/processing/ana
REMARK output written to subdirectory = Refine_9                                
REMARK best refinement for F,SIGF with R/Rfree 0.2303/0.2659                    
REMARK header records are copied from input PDB file (apart from REMARK 3!)     
REMARK --------------------- added by autoBUSTER -------------------------------
REMARK --------------------- added by autoBUSTER -------------------------------
REMARK run at   = Tue May 30 00:58:29 BST 2023                                  
REMARK     in   = /dls/labxchem/data/lb32627/lb32627-65/processing/analysis/mode
REMARK     user = xau79897                                                      
REMARK     cmd  = \                                                             
REMARK            /dls_sw/apps/GPhL/BUSTER/20230217/autoBUSTER/bin/linux64/refin
REMARK            -p \                                                          
REMARK            /dls/labxchem/data/lb32627/lb32627-65/processing/analysis/mode
REMARK            -m \                                                          
REMARK            /dls/labxchem/data/lb32627/lb32627-65/processing/analysis/mode
REMARK            -l \                                                          
REMARK            /dls/labxchem/data/lb32627/lb32627-65/processing/analysis/mode
REMARK            -autoncs -M TLSbasic -B user -Gelly gelly.dat \               
REMARK            StopOnGellySanityCheckError=no -d Refine_5                    
REMARK Files used:                                                              
REMARK   PDB              = Refine_5/pdbchk.pdb                                 
REMARK   MTZ              = /dls/labxchem/data/lb32627/lb32627-65/processing/ana
REMARK   Gelly commands       = /dls/labxchem/data/lb32627/lb32627-65/processing
REMARK output written to subdirectory = Refine_5                                
REMARK best refinement for F,SIGF with R/Rfree 0.2324/0.2619                    
REMARK header records are copied from input PDB file (apart from REMARK 3!)     
REMARK --------------------- added by autoBUSTER -------------------------------
REMARK --------------------- added by autoBUSTER -------------------------------
REMARK run at   = Wed May 24 15:04:15 BST 2023                                  
REMARK     in   = /dls/labxchem/data/lb32627/lb32627-65/processing/analysis/mode
REMARK     user = xau79897                                                      
REMARK     cmd  = \                                                             
REMARK            /dls_sw/apps/GPhL/BUSTER/20230217/autoBUSTER/bin/linux64/refin
REMARK            -p \                                                          
REMARK            /dls/labxchem/data/lb32627/lb32627-65/processing/analysis/mode
REMARK            -m \                                                          
REMARK            /dls/labxchem/data/lb32627/lb32627-65/processing/analysis/mode
REMARK            -l \                                                          
REMARK            /dls/labxchem/data/lb32627/lb32627-65/processing/analysis/mode
REMARK            -autoncs -M TLSbasic -WAT -B user -Gelly gelly.dat \          
REMARK            StopOnGellySanityCheckError=no -d Refine_4                    
REMARK Files used:                                                              
REMARK   PDB              = Refine_4/pdbchk.pdb                                 
REMARK   MTZ              = /dls/labxchem/data/lb32627/lb32627-65/processing/ana
REMARK   Gelly commands       = /dls/labxchem/data/lb32627/lb32627-65/processing
REMARK output written to subdirectory = Refine_4                                
REMARK best refinement for F,SIGF with R/Rfree 0.2321/0.2640                    
REMARK header records are copied from input PDB file (apart from REMARK 3!)     
REMARK --------------------- added by autoBUSTER -------------------------------
REMARK --------------------- added by autoBUSTER -------------------------------
REMARK run at   = Tue May 23 17:09:08 BST 2023                                  
REMARK     in   = /dls/labxchem/data/lb32627/lb32627-65/processing/analysis/mode
REMARK     user = xau79897                                                      
REMARK     cmd  = \                                                             
REMARK            /dls_sw/apps/GPhL/BUSTER/20230217/autoBUSTER/bin/linux64/refin
REMARK            -p \                                                          
REMARK            /dls/labxchem/data/lb32627/lb32627-65/processing/analysis/mode
REMARK            -m \                                                          
REMARK            /dls/labxchem/data/lb32627/lb32627-65/processing/analysis/mode
REMARK            -l \                                                          
REMARK            /dls/labxchem/data/lb32627/lb32627-65/processing/analysis/mode
REMARK            -autoncs -M TLSbasic -d Refine_3                              
REMARK Files used:                                                              
REMARK   PDB              = Refine_3/pdbchk.pdb                                 
REMARK   MTZ              = /dls/labxchem/data/lb32627/lb32627-65/processing/ana
REMARK output written to subdirectory = Refine_3                                
REMARK best refinement for F,SIGF with R/Rfree 0.2396/0.2607                    
REMARK header records are copied from input PDB file (apart from REMARK 3!)     
REMARK --------------------- added by autoBUSTER -------------------------------
REMARK   2                                                            
REMARK   2 RESOLUTION.    1.55 ANGSTROMS.
REMARK   3
REMARK   3 REFINEMENT.
REMARK   3   PROGRAM     : BUSTER 2.10.4 (14-JUN-2023)
REMARK   3   AUTHORS     : BRICOGNE,BLANC,BRANDL,FLENSBURG,KELLER,
REMARK   3               : PACIOREK,ROVERSI,SHARFF,SMART,VONRHEIN,WOMACK;
REMARK   3               : MATTHEWS,TEN EYCK,TRONRUD
REMARK   3
REMARK   3  DATA USED IN REFINEMENT.
REMARK   3   RESOLUTION RANGE HIGH (ANGSTROMS) : 1.554
REMARK   3   RESOLUTION RANGE LOW  (ANGSTROMS) : 23.14
REMARK   3   DATA CUTOFF            (SIGMA(F)) : 0.000
REMARK   3   COMPLETENESS FOR RANGE        (%) : 80.5
REMARK   3   NUMBER OF REFLECTIONS             : 24249
REMARK   3
REMARK   3  FIT TO DATA USED IN REFINEMENT.
REMARK   3   CROSS-VALIDATION METHOD          : THROUGHOUT
REMARK   3   FREE R VALUE TEST SET SELECTION  : RANDOM
REMARK   3   R VALUE     (WORKING + TEST SET) : 0.2310
REMARK   3   R VALUE            (WORKING SET) : 0.2292
REMARK   3   FREE R VALUE                     : 0.2661
REMARK   3   FREE R VALUE TEST SET SIZE   (%) : 5.150
REMARK   3   FREE R VALUE TEST SET COUNT      : 1249
REMARK   3   ESTIMATED ERROR OF FREE R VALUE  : NULL
REMARK   3
REMARK   3  FIT IN THE HIGHEST RESOLUTION BIN.
REMARK   3   TOTAL NUMBER OF BINS USED           : 51
REMARK   3   BIN RESOLUTION RANGE HIGH       (A) : 1.55
REMARK   3   BIN RESOLUTION RANGE LOW        (A) : 1.67
REMARK   3   BIN COMPLETENESS (WORKING+TEST) (%) : 8.36
REMARK   3   REFLECTIONS IN BIN   (WORKING+TEST) : 485
REMARK   3   BIN R VALUE          (WORKING+TEST) : 0.6001
REMARK   3   REFLECTIONS IN BIN    (WORKING SET) : 456
REMARK   3   BIN R VALUE           (WORKING SET) : 0.6045
REMARK   3   BIN FREE R VALUE                    : 0.5328
REMARK   3   BIN FREE R VALUE TEST SET SIZE  (%) : 5.98
REMARK   3   BIN FREE R VALUE TEST SET COUNT     : 29
REMARK   3   ESTIMATED ERROR OF BIN FREE R VALUE : NULL
REMARK   3
REMARK   3  NUMBER OF NON-HYDROGEN ATOMS USED IN REFINEMENT.
REMARK   3   PROTEIN ATOMS            : 1476
REMARK   3   NUCLEIC ACID ATOMS       : 0
REMARK   3   HETEROGEN ATOMS          : 46
REMARK   3   SOLVENT ATOMS            : 111
REMARK   3
REMARK   3  B VALUES.
REMARK   3   FROM WILSON PLOT           (A**2) : 31.75
REMARK   3   MEAN B VALUE      (OVERALL, A**2) : 47.83
REMARK   3   OVERALL ANISOTROPIC B VALUE.
REMARK   3    B11 (A**2) : -6.50940
REMARK   3    B22 (A**2) : -6.50940
REMARK   3    B33 (A**2) : 13.01870
REMARK   3    B12 (A**2) : 0.00000
REMARK   3    B13 (A**2) : 0.00000
REMARK   3    B23 (A**2) : 0.00000
REMARK   3
REMARK   3  ESTIMATED COORDINATE ERROR.
REMARK   3   ESD FROM LUZZATI PLOT                    (A) : 0.34
REMARK   3   DPI (BLOW EQ-10) BASED ON R VALUE        (A) : 0.127
REMARK   3   DPI (BLOW EQ-9) BASED ON FREE R VALUE    (A) : 0.122
REMARK   3   DPI (CRUICKSHANK) BASED ON R VALUE       (A) : 0.120
REMARK   3   DPI (CRUICKSHANK) BASED ON FREE R VALUE  (A) : 0.118
REMARK   3
REMARK   3   REFERENCES: BLOW, D. (2002) ACTA CRYST D58, 792-797
REMARK   3               CRUICKSHANK, D.W.J. (1999) ACTA CRYST D55, 583-601
REMARK   3
REMARK   3  CORRELATION COEFFICIENTS.
REMARK   3   CORRELATION COEFFICIENT FO-FC      : 0.939
REMARK   3   CORRELATION COEFFICIENT FO-FC FREE : 0.926
REMARK   3
REMARK   3  X-RAY WEIGHT : 6.54
REMARK   3
REMARK   3  GEOMETRY FUNCTION.                                                  
REMARK   3   RESTRAINT LIBRARIES.                                               
REMARK   3    NUMBER OF LIBRARIES USED :   9                                    
REMARK   3    LIBRARY  1 : protgeo_eh99.dat (V1.6.4.20) 20220523  STANDARD      
REMARK   3                 AMINO ACID DICTIONARY. BONDS AND ANGLES FROM         
REMARK   3                 ENGH AND HUBER EH99. OTHER VALUES BASED ON           
REMARK   3                 PREVIOUS TNT OR TAKEN FROM CCP4. INCLUDES            
REMARK   3                 HYDROGEN ATOMS.                                      
REMARK   3    LIBRARY  2 : exoticaa.dat (V1.3.4.16) 20220523  COLLECTION        
REMARK   3                 OF NON-STANDARD AMINO ACIDS, MAINLY EH91             
REMARK   3                 WITHOUT IDEAL DISTANCE INFO                          
REMARK   3    LIBRARY  3 : nuclgeo.dat (V1.13.4.9) 20221011                     
REMARK   3    LIBRARY  4 : bcorrel.dat (V1.15.10.2) 20190616                    
REMARK   3    LIBRARY  5 : contact.dat (V1.15.12.10) 20191121                   
REMARK   3    LIBRARY  6 : idealdist_contact.dat (V1.3.4.13) 20220125           
REMARK   3                 IDEAL-DISTANCE CONTACT TERM DATA AS USED IN          
REMARK   3                 PROLSQ. VALUES USED HERE ARE BASED ON DATA           
REMARK   3                 HARVESTING OF PDB AS OF 20190109.                    
REMARK   3    LIBRARY  7 : restraints for LIG (unknown) from cif                
REMARK   3                 dictionary Z1102357527.cif; generated by GRADE       
REMARK   3                 1.2.21 (Feb 03 2022) from SMILES                     
REMARK   3                 O=C(NC1CCC(=O)NC1)c2cscn2 using MOGUL                
REMARK   3                 1.8.5(274361), CSD as541be, with quantum             
REMARK   3                 mechanics RM1                                        
REMARK   3    LIBRARY  8 : restraints for DMS (DIMETHYL SULFOXIDE) from         
REMARK   3                 cif dictionary DMS.cif; generated by grade2          
REMARK   3                 version 1.1.0a7 from                                 
REMARK   3                 PDB_chemical_components_definition_file              
REMARK   3                 ftp://ftp.ebi.ac.uk/pub/databases/msd/pdbechem_v     
REMARK   3                 2/D/DMS/DMS.cif using RDKit 2021.03.4                
REMARK   3                 ((DatabaseID PDB-DMS))                               
REMARK   3    LIBRARY  9 : assume.dat (V1.9.4.3) 20221011                       
REMARK   3                                                                      
REMARK   3   NUMBER OF GEOMETRIC FUNCTION TERMS DEFINED : 15                    
REMARK   3   TERM                          COUNT    WEIGHT   FUNCTION.          
REMARK   3    BOND LENGTHS              :   1637 ;   2.00 ;  HARMONIC           
REMARK   3    BOND ANGLES               :   2235 ;   2.00 ;  HARMONIC           
REMARK   3    TORSION ANGLES            :    563 ;   2.00 ;  SINUSOIDAL         
REMARK   3    TRIGONAL CARBON PLANES    :   NULL ;   NULL ;  NULL               
REMARK   3    GENERAL PLANES            :    294 ;   5.00 ;  HARMONIC           
REMARK   3    ISOTROPIC THERMAL FACTORS :   1637 ;  10.00 ;  HARMONIC           
REMARK   3    BAD NON-BONDED CONTACTS   :   NULL ;   NULL ;  NULL               
REMARK   3    IMPROPER TORSIONS         :   NULL ;   NULL ;  NULL               
REMARK   3    PSEUDOROTATION ANGLES     :   NULL ;   NULL ;  NULL               
REMARK   3    CHIRAL IMPROPER TORSION   :    205 ;   5.00 ;  SEMIHARMONIC       
REMARK   3    SUM OF OCCUPANCIES        :   NULL ;   NULL ;  NULL               
REMARK   3    UTILITY DISTANCES         :   NULL ;   NULL ;  NULL               
REMARK   3    UTILITY ANGLES            :   NULL ;   NULL ;  NULL               
REMARK   3    UTILITY TORSION           :   NULL ;   NULL ;  NULL               
REMARK   3    IDEAL-DIST CONTACT TERM   :   1356 ;   4.00 ;  SEMIHARMONIC       
REMARK   3                                                                      
REMARK   3   RMS DEVIATIONS FROM IDEAL VALUES.                                  
REMARK   3   BOND LENGTHS                       (A) : 0.010                     
REMARK   3   BOND ANGLES                  (DEGREES) : 1.00                      
REMARK   3   PEPTIDE OMEGA TORSION ANGLES (DEGREES) : 3.61                      
REMARK   3   OTHER TORSION ANGLES         (DEGREES) : 16.77                     
REMARK   3                                                                      
REMARK   3   SIMILARITY.                                                        
REMARK   3    NCS.                                                              
REMARK   3     NCS METHOD: NONE                                                 
REMARK   3    TARGET RESTRAINTS.                                                
REMARK   3     TARGET REPRESENTATION : NONE                                     
REMARK   3     TARGET STRUCTURE : NULL                                          
REMARK   3                                                                      
REMARK   3  TLS DETAILS.                                                        
REMARK   3   NUMBER OF TLS GROUPS  :            2                               
REMARK   3                                                                      
REMARK   3   TLS GROUP :            1                                           
REMARK   3    SET : { A|* }                                                     
REMARK   3    ORIGIN FOR THE GROUP (A):  -14.2882   -1.6869  -19.9071           
REMARK   3    T TENSOR                                                          
REMARK   3     T11:   -0.0261 T22:   -0.0987                                    
REMARK   3     T33:   -0.1326 T12:    0.1372                                    
REMARK   3     T13:    0.0720 T23:    0.0727                                    
REMARK   3    L TENSOR                                                          
REMARK   3     L11:    2.7271 L22:    2.8973                                    
REMARK   3     L33:    3.5467 L12:   -1.5765                                    
REMARK   3     L13:    0.3721 L23:    0.7548                                    
REMARK   3    S TENSOR                                                          
REMARK   3     S11:    0.4438 S12:    0.3320 S13:    0.2416                     
REMARK   3     S21:   -0.4272 S22:   -0.3629 S23:   -0.2000                     
REMARK   3     S31:    0.0854 S32:    0.3404 S33:   -0.0809                     
REMARK   3                                                                      
REMARK   3   TLS GROUP :            2                                           
REMARK   3    SET : { B|* }                                                     
REMARK   3    ORIGIN FOR THE GROUP (A):  -18.5244    1.1655  -15.5724           
REMARK   3    T TENSOR                                                          
REMARK   3     T11:    0.0361 T22:   -0.0243                                    
REMARK   3     T33:   -0.0055 T12:    0.1164                                    
REMARK   3     T13:    0.0163 T23:    0.0129                                    
REMARK   3    L TENSOR                                                          
REMARK   3     L11:    0.9925 L22:    1.0653                                    
REMARK   3     L33:    2.0468 L12:   -0.9544                                    
REMARK   3     L13:    0.4328 L23:   -0.1316                                    
REMARK   3    S TENSOR                                                          
REMARK   3     S11:    0.2524 S12:    0.1093 S13:    0.0842                     
REMARK   3     S21:   -0.0889 S22:   -0.2337 S23:    0.0529                     
REMARK   3     S31:    0.0813 S32:    0.1717 S33:   -0.0187                     
REMARK   3                                                                      
REMARK   3  REFINEMENT NOTES.                                                   
REMARK   3   NUMBER OF REFINEMENT NOTES :   1                                   
REMARK   3   NOTE   1 : IDEAL-DIST CONTACT TERM CONTACT SETUP. ALL ATOMS        
REMARK   3               HAVE CCP4 ATOM TYPE FROM LIBRARY                       
REMARK   3
REMARK   3  OTHER REFINEMENT REMARKS: NULL
REMARK   3
REMARK 290                                                            
REMARK 290 CRYSTALLOGRAPHIC SYMMETRY                                  
REMARK 290 SYMMETRY OPERATORS FOR SPACE GROUP: P 43 2 2               
REMARK 290                                                            
REMARK 290      SYMOP   SYMMETRY                                      
REMARK 290     NNNMMM   OPERATOR                                      
REMARK 290       1555   X,Y,Z                                         
REMARK 290       2555   -X,-Y,1/2+Z                                   
REMARK 290       3555   -Y,X,3/4+Z                                    
REMARK 290       4555   Y,-X,1/4+Z                                    
REMARK 290       5555   -X,Y,-Z                                       
REMARK 290       6555   X,-Y,1/2-Z                                    
REMARK 290       7555   Y,X,1/4-Z                                     
REMARK 290       8555   -Y,-X,3/4-Z                                   
REMARK 290                                                            
REMARK 290     WHERE NNN -> OPERATOR NUMBER                           
REMARK 290           MMM -> TRANSLATION VECTOR                        
REMARK 290                                                            
REMARK 290 CRYSTALLOGRAPHIC SYMMETRY TRANSFORMATIONS                  
REMARK 290 THE FOLLOWING TRANSFORMATIONS OPERATE ON THE ATOM/HETATM   
REMARK 290 RECORDS IN THIS ENTRY TO PRODUCE CRYSTALLOGRAPHICALLY      
REMARK 290 RELATED MOLECULES.                                         
REMARK 290   SMTRY1   1  1.000000  0.000000  0.000000        0.00000
REMARK 290   SMTRY2   1  0.000000  1.000000  0.000000        0.00000
REMARK 290   SMTRY3   1  0.000000  0.000000  1.000000        0.00000
REMARK 290   SMTRY1   2 -1.000000  0.000000  0.000000        0.00000
REMARK 290   SMTRY2   2  0.000000 -1.000000  0.000000        0.00000
REMARK 290   SMTRY3   2  0.000000  0.000000  1.000000      108.55950
REMARK 290   SMTRY1   3  0.000000 -1.000000  0.000000        0.00000
REMARK 290   SMTRY2   3  1.000000  0.000000  0.000000        0.00000
REMARK 290   SMTRY3   3  0.000000  0.000000  1.000000      162.83925
REMARK 290   SMTRY1   4  0.000000  1.000000  0.000000        0.00000
REMARK 290   SMTRY2   4 -1.000000  0.000000  0.000000        0.00000
REMARK 290   SMTRY3   4  0.000000  0.000000  1.000000       54.27975
REMARK 290   SMTRY1   5 -1.000000  0.000000  0.000000        0.00000
REMARK 290   SMTRY2   5  0.000000  1.000000  0.000000        0.00000
REMARK 290   SMTRY3   5  0.000000  0.000000 -1.000000        0.00000
REMARK 290   SMTRY1   6  1.000000  0.000000  0.000000        0.00000
REMARK 290   SMTRY2   6  0.000000 -1.000000  0.000000        0.00000
REMARK 290   SMTRY3   6  0.000000  0.000000 -1.000000      108.55950
REMARK 290   SMTRY1   7  0.000000  1.000000  0.000000        0.00000
REMARK 290   SMTRY2   7  1.000000  0.000000  0.000000        0.00000
REMARK 290   SMTRY3   7  0.000000  0.000000 -1.000000       54.27975
REMARK 290   SMTRY1   8  0.000000 -1.000000  0.000000        0.00000
REMARK 290   SMTRY2   8 -1.000000  0.000000  0.000000        0.00000
REMARK 290   SMTRY3   8  0.000000  0.000000 -1.000000      162.83925
REMARK 290                                                            
REMARK 290 REMARK: NULL                                               
CRYST1   42.580   42.580  217.119  90.00  90.00  90.00 P 43 2 2                 


$$$$
Zx0673a_ligand
  PyMOL3.0          3D                             0

 15 16  0  0  0  0  0  0  0  0999 V2000
  -10.2060    4.0410  -17.9360 C   0  0  0  0  0  0  0  0  0  0  0  0
   -9.7120    4.1500  -16.7140 N   0  0  0  0  0  0  0  0  0  0  0  0
  -11.4070    3.8970  -18.1180 O   0  0  0  0  0  0  0  0  0  0  0  0
   -1.5830    5.5210  -17.3360 S   0  0  0  0  0  0  0  0  0  0  0  0
   -9.2690    4.1540  -19.0990 C   0  0  0  0  0  0  0  0  0  0  0  0
   -6.4000    5.7860  -17.1460 N   0  0  0  0  0  0  0  0  0  0  0  0
   -5.5580    5.4440  -15.0690 O   0  0  0  0  0  0  0  0  0  0  0  0
   -8.0130    4.9800  -18.8040 C   0  0  0  0  0  0  0  0  0  0  0  0
   -3.9260    4.9810  -18.2080 N   0  0  0  0  0  0  0  0  0  0  0  0
   -8.5190    4.9090  -16.3470 C   0  0  0  0  0  0  0  0  0  0  0  0
   -7.4360    4.7910  -17.4060 C   0  0  0  0  0  0  0  0  0  0  0  0
   -5.3990    5.5650  -16.2860 C   0  0  0  0  0  0  0  0  0  0  0  0
   -4.0600    5.4490  -16.9110 C   0  0  0  0  0  0  0  0  0  0  0  0
   -2.6680    4.9760  -18.5380 C   0  0  0  0  0  0  0  0  0  0  0  0
   -2.9020    5.7820  -16.2930 C   0  0  0  0  0  0  0  0  0  0  0  0
  1  2  1  0  0  0  0
  1  5  1  0  0  0  0
  2 10  1  0  0  0  0
  1  3  2  0  0  0  0
  4 15  4  0  0  0  0
  5  8  1  0  0  0  0
  6 12  1  0  0  0  0
  8 11  1  0  0  0  0
  9 14  4  0  0  0  0
 10 11  1  0  0  0  0
  6 11  1  0  0  0  0
  7 12  2  0  0  0  0
 12 13  1  0  0  0  0
  9 13  4  0  0  0  0
 13 15  4  0  0  0  0
  4 14  4  0  0  0  0
M  END
>  <pdb_header>
COMPND    XX01ZVNS2B-x0673_B_401_XX01ZVNS2B-x1291+B+301+1


$$$$
Zx0673b
  PyMOL3.0          3D                             0

 30 32  0  0  0  0  0  0  0  0999 V2000
   -6.6480    6.2870  -17.3280 N   0  0  0  0  0  0  0  0  0  0  0  0
   -5.6380    6.0630  -16.4800 C   0  0  0  0  0  0  0  0  0  0  0  0
   -5.7840    5.9430  -15.2610 O   0  0  0  0  0  0  0  0  0  0  0  0
   -7.6900    5.2950  -17.5770 C   0  0  0  0  0  0  0  0  0  0  0  0
   -9.9600    4.6610  -16.8600 N   0  0  0  0  0  0  0  0  0  0  0  0
  -11.6710    4.4120  -18.2450 O   0  0  0  0  0  0  0  0  0  0  0  0
   -8.2820    5.4850  -18.9680 C   0  0  0  0  0  0  0  0  0  0  0  0
   -4.1880    5.4750  -18.4180 N   0  0  0  0  0  0  0  0  0  0  0  0
   -9.5430    4.6630  -19.2500 C   0  0  0  0  0  0  0  0  0  0  0  0
  -10.4680    4.5530  -18.0760 C   0  0  0  0  0  0  0  0  0  0  0  0
   -8.7610    5.4160  -16.5060 C   0  0  0  0  0  0  0  0  0  0  0  0
   -4.3070    5.9430  -17.1190 C   0  0  0  0  0  0  0  0  0  0  0  0
   -3.1410    6.2730  -16.5140 C   0  0  0  0  0  0  0  0  0  0  0  0
   -2.9340    5.4660  -18.7610 C   0  0  0  0  0  0  0  0  0  0  0  0
   -1.8340    6.0080  -17.5710 S   0  0  0  0  0  0  0  0  0  0  0  0
   -8.1050    2.4990    1.0470 N   0  0  0  0  0  0  0  0  0  0  0  0
   -8.5750    3.5470    0.3420 C   0  0  0  0  0  0  0  0  0  0  0  0
   -8.0180    3.9850   -0.6630 O   0  0  0  0  0  0  0  0  0  0  0  0
   -7.1470    2.6490    2.1440 C   0  0  0  0  0  0  0  0  0  0  0  0
   -7.8690    0.7780    3.5480 N   0  0  0  0  0  0  0  0  0  0  0  0
   -6.7680   -1.1130    3.8910 O   0  0  0  0  0  0  0  0  0  0  0  0
   -5.8500    1.8630    1.9080 C   0  0  0  0  0  0  0  0  0  0  0  0
  -10.6060    4.9570    0.0250 N   0  0  0  0  0  0  0  0  0  0  0  0
   -5.8330    0.3750    2.2940 C   0  0  0  0  0  0  0  0  0  0  0  0
   -6.8710   -0.0440    3.2950 C   0  0  0  0  0  0  0  0  0  0  0  0
   -7.8010    2.2320    3.4480 C   0  0  0  0  0  0  0  0  0  0  0  0
   -9.8280    4.1580    0.8530 C   0  0  0  0  0  0  0  0  0  0  0  0
  -10.2890    4.0230    2.1220 C   0  0  0  0  0  0  0  0  0  0  0  0
  -11.6290    5.4050    0.6920 C   0  0  0  0  0  0  0  0  0  0  0  0
  -11.7290    4.9070    2.3250 S   0  0  0  0  0  0  0  0  0  0  0  0
  1  2  1  0  0  0  0
  2  3  2  0  0  0  0
  2 12  1  0  0  0  0
  1  4  1  0  0  0  0
  5 11  1  0  0  0  0
  6 10  2  0  0  0  0
  4  7  1  0  0  0  0
  8 14  4  0  0  0  0
  7  9  1  0  0  0  0
  5 10  1  0  0  0  0
  9 10  1  0  0  0  0
  4 11  1  0  0  0  0
  8 12  4  0  0  0  0
 12 13  4  0  0  0  0
 14 15  4  0  0  0  0
 13 15  4  0  0  0  0
 16 17  1  0  0  0  0
 17 18  2  0  0  0  0
 17 27  1  0  0  0  0
 16 19  1  0  0  0  0
 20 26  1  0  0  0  0
 21 25  2  0  0  0  0
 19 22  1  0  0  0  0
 23 29  4  0  0  0  0
 22 24  1  0  0  0  0
 20 25  1  0  0  0  0
 24 25  1  0  0  0  0
 19 26  1  0  0  0  0
 23 27  4  0  0  0  0
 27 28  4  0  0  0  0
 29 30  4  0  0  0  0
 28 30  4  0  0  0  0
M  END
>  <pdb_header>
HEADER    ----                                    18-MAY-23                     
TITLE     ---                                                                   
EXPDTA    X-RAY DIFFRACTION                                                     
REMARK --------------------- added by autoBUSTER ---------------------------------START
REMARK run at   = Thu Aug 10 10:29:17 BST 2023
REMARK     in   = /dls/labxchem/data/lb32627/lb32627-65/processing/analysis/model_building/XX01ZVNS2B-x0673
REMARK     user = kyf22269
REMARK     cmd  = \
REMARK            /dls_sw/apps/GPhL/BUSTER/20230614/autoBUSTER/bin/linux64/refine \
REMARK            -p \
REMARK            /dls/labxchem/data/lb32627/lb32627-65/processing/analysis/model_building/XX01ZVNS2B-x0673/cootOut/Refi
REMARK            -m \
REMARK            /dls/labxchem/data/lb32627/lb32627-65/processing/analysis/model_building/XX01ZVNS2B-x0673/XX01ZVNS2B-x
REMARK            -l \
REMARK            /dls/labxchem/data/lb32627/lb32627-65/processing/analysis/model_building/XX01ZVNS2B-x0673/Z1102357527.
REMARK            -autoncs -M TLSbasic -d Refine_13
REMARK Files used:
REMARK   PDB              = Refine_13/pdbchk.pdb
REMARK   MTZ              = /dls/labxchem/data/lb32627/lb32627-65/processing/analysis/model_building/XX01ZVNS2B-x0673/XX
REMARK output written to subdirectory = Refine_13
REMARK best refinement for F,SIGF with R/Rfree 0.2292/0.2661
REMARK header records are copied from input PDB file (apart from REMARK 3!)
REMARK --------------------- added by autoBUSTER -----------------------------------END
REMARK --------------------- added by autoBUSTER -------------------------------
REMARK run at   = Wed Aug  9 14:21:39 BST 2023                                  
REMARK     in   = /dls/labxchem/data/lb32627/lb32627-65/processing/analysis/mode
REMARK     user = kyf22269                                                      
REMARK     cmd  = \                                                             
REMARK            /dls_sw/apps/GPhL/BUSTER/20230614/autoBUSTER/bin/linux64/refin
REMARK            -p \                                                          
REMARK            /dls/labxchem/data/lb32627/lb32627-65/processing/analysis/mode
REMARK            -m \                                                          
REMARK            /dls/labxchem/data/lb32627/lb32627-65/processing/analysis/mode
REMARK            -l \                                                          
REMARK            /dls/labxchem/data/lb32627/lb32627-65/processing/analysis/mode
REMARK            -autoncs -M TLSbasic -d Refine_12                             
REMARK Files used:                                                              
REMARK   PDB              = Refine_12/pdbchk.pdb                                
REMARK   MTZ              = /dls/labxchem/data/lb32627/lb32627-65/processing/ana
REMARK output written to subdirectory = Refine_12                               
REMARK best refinement for F,SIGF with R/Rfree 0.2291/0.2669                    
REMARK header records are copied from input PDB file (apart from REMARK 3!)     
REMARK --------------------- added by autoBUSTER -------------------------------
REMARK --------------------- added by autoBUSTER -------------------------------
REMARK run at   = Wed Aug  9 11:07:21 BST 2023                                  
REMARK     in   = /dls/labxchem/data/lb32627/lb32627-65/processing/analysis/mode
REMARK     user = kyf22269                                                      
REMARK     cmd  = \                                                             
REMARK            /dls_sw/apps/GPhL/BUSTER/20230614/autoBUSTER/bin/linux64/refin
REMARK            -p \                                                          
REMARK            /dls/labxchem/data/lb32627/lb32627-65/processing/analysis/mode
REMARK            -m \                                                          
REMARK            /dls/labxchem/data/lb32627/lb32627-65/processing/analysis/mode
REMARK            -l \                                                          
REMARK            /dls/labxchem/data/lb32627/lb32627-65/processing/analysis/mode
REMARK            -autoncs -M TLSbasic -d Refine_11                             
REMARK Files used:                                                              
REMARK   PDB              = Refine_11/pdbchk.pdb                                
REMARK   MTZ              = /dls/labxchem/data/lb32627/lb32627-65/processing/ana
REMARK output written to subdirectory = Refine_11                               
REMARK best refinement for F,SIGF with R/Rfree 0.2290/0.2660                    
REMARK header records are copied from input PDB file (apart from REMARK 3!)     
REMARK --------------------- added by autoBUSTER -------------------------------
REMARK --------------------- added by autoBUSTER -------------------------------
REMARK run at   = Fri Aug  4 18:17:27 BST 2023                                  
REMARK     in   = /dls/labxchem/data/lb32627/lb32627-65/processing/analysis/mode
REMARK     user = kyf22269                                                      
REMARK     cmd  = \                                                             
REMARK            /dls_sw/apps/GPhL/BUSTER/20230614/autoBUSTER/bin/linux64/refin
REMARK            -p \                                                          
REMARK            /dls/labxchem/data/lb32627/lb32627-65/processing/analysis/mode
REMARK            -m \                                                          
REMARK            /dls/labxchem/data/lb32627/lb32627-65/processing/analysis/mode
REMARK            -l \                                                          
REMARK            /dls/labxchem/data/lb32627/lb32627-65/processing/analysis/mode
REMARK            -autoncs -M TLSbasic -d Refine_10                             
REMARK Files used:                                                              
REMARK   PDB              = Refine_10/pdbchk.pdb                                
REMARK   MTZ              = /dls/labxchem/data/lb32627/lb32627-65/processing/ana
REMARK output written to subdirectory = Refine_10                               
REMARK best refinement for F,SIGF with R/Rfree 0.2294/0.2662                    
REMARK header records are copied from input PDB file (apart from REMARK 3!)     
REMARK --------------------- added by autoBUSTER -------------------------------
REMARK --------------------- added by autoBUSTER -------------------------------
REMARK run at   = Tue Aug  1 16:25:24 BST 2023                                  
REMARK     in   = /dls/labxchem/data/lb32627/lb32627-65/processing/analysis/mode
REMARK     user = kyf22269                                                      
REMARK     cmd  = \                                                             
REMARK            /dls_sw/apps/GPhL/BUSTER/20230614/autoBUSTER/bin/linux64/refin
REMARK            -p \                                                          
REMARK            /dls/labxchem/data/lb32627/lb32627-65/processing/analysis/mode
REMARK            -m \                                                          
REMARK            /dls/labxchem/data/lb32627/lb32627-65/processing/analysis/mode
REMARK            -l \                                                          
REMARK            /dls/labxchem/data/lb32627/lb32627-65/processing/analysis/mode
REMARK            -autoncs -M TLSbasic -d Refine_9                              
REMARK Files used:                                                              
REMARK   PDB              = Refine_9/pdbchk.pdb                                 
REMARK   MTZ              = /dls/labxchem/data/lb32627/lb32627-65/processing/ana
REMARK output written to subdirectory = Refine_9                                
REMARK best refinement for F,SIGF with R/Rfree 0.2303/0.2659                    
REMARK header records are copied from input PDB file (apart from REMARK 3!)     
REMARK --------------------- added by autoBUSTER -------------------------------
REMARK --------------------- added by autoBUSTER -------------------------------
REMARK run at   = Tue May 30 00:58:29 BST 2023                                  
REMARK     in   = /dls/labxchem/data/lb32627/lb32627-65/processing/analysis/mode
REMARK     user = xau79897                                                      
REMARK     cmd  = \                                                             
REMARK            /dls_sw/apps/GPhL/BUSTER/20230217/autoBUSTER/bin/linux64/refin
REMARK            -p \                                                          
REMARK            /dls/labxchem/data/lb32627/lb32627-65/processing/analysis/mode
REMARK            -m \                                                          
REMARK            /dls/labxchem/data/lb32627/lb32627-65/processing/analysis/mode
REMARK            -l \                                                          
REMARK            /dls/labxchem/data/lb32627/lb32627-65/processing/analysis/mode
REMARK            -autoncs -M TLSbasic -B user -Gelly gelly.dat \               
REMARK            StopOnGellySanityCheckError=no -d Refine_5                    
REMARK Files used:                                                              
REMARK   PDB              = Refine_5/pdbchk.pdb                                 
REMARK   MTZ              = /dls/labxchem/data/lb32627/lb32627-65/processing/ana
REMARK   Gelly commands       = /dls/labxchem/data/lb32627/lb32627-65/processing
REMARK output written to subdirectory = Refine_5                                
REMARK best refinement for F,SIGF with R/Rfree 0.2324/0.2619                    
REMARK header records are copied from input PDB file (apart from REMARK 3!)     
REMARK --------------------- added by autoBUSTER -------------------------------
REMARK --------------------- added by autoBUSTER -------------------------------
REMARK run at   = Wed May 24 15:04:15 BST 2023                                  
REMARK     in   = /dls/labxchem/data/lb32627/lb32627-65/processing/analysis/mode
REMARK     user = xau79897                                                      
REMARK     cmd  = \                                                             
REMARK            /dls_sw/apps/GPhL/BUSTER/20230217/autoBUSTER/bin/linux64/refin
REMARK            -p \                                                          
REMARK            /dls/labxchem/data/lb32627/lb32627-65/processing/analysis/mode
REMARK            -m \                                                          
REMARK            /dls/labxchem/data/lb32627/lb32627-65/processing/analysis/mode
REMARK            -l \                                                          
REMARK            /dls/labxchem/data/lb32627/lb32627-65/processing/analysis/mode
REMARK            -autoncs -M TLSbasic -WAT -B user -Gelly gelly.dat \          
REMARK            StopOnGellySanityCheckError=no -d Refine_4                    
REMARK Files used:                                                              
REMARK   PDB              = Refine_4/pdbchk.pdb                                 
REMARK   MTZ              = /dls/labxchem/data/lb32627/lb32627-65/processing/ana
REMARK   Gelly commands       = /dls/labxchem/data/lb32627/lb32627-65/processing
REMARK output written to subdirectory = Refine_4                                
REMARK best refinement for F,SIGF with R/Rfree 0.2321/0.2640                    
REMARK header records are copied from input PDB file (apart from REMARK 3!)     
REMARK --------------------- added by autoBUSTER -------------------------------
REMARK --------------------- added by autoBUSTER -------------------------------
REMARK run at   = Tue May 23 17:09:08 BST 2023                                  
REMARK     in   = /dls/labxchem/data/lb32627/lb32627-65/processing/analysis/mode
REMARK     user = xau79897                                                      
REMARK     cmd  = \                                                             
REMARK            /dls_sw/apps/GPhL/BUSTER/20230217/autoBUSTER/bin/linux64/refin
REMARK            -p \                                                          
REMARK            /dls/labxchem/data/lb32627/lb32627-65/processing/analysis/mode
REMARK            -m \                                                          
REMARK            /dls/labxchem/data/lb32627/lb32627-65/processing/analysis/mode
REMARK            -l \                                                          
REMARK            /dls/labxchem/data/lb32627/lb32627-65/processing/analysis/mode
REMARK            -autoncs -M TLSbasic -d Refine_3                              
REMARK Files used:                                                              
REMARK   PDB              = Refine_3/pdbchk.pdb                                 
REMARK   MTZ              = /dls/labxchem/data/lb32627/lb32627-65/processing/ana
REMARK output written to subdirectory = Refine_3                                
REMARK best refinement for F,SIGF with R/Rfree 0.2396/0.2607                    
REMARK header records are copied from input PDB file (apart from REMARK 3!)     
REMARK --------------------- added by autoBUSTER -------------------------------
REMARK   2                                                            
REMARK   2 RESOLUTION.    1.55 ANGSTROMS.
REMARK   3
REMARK   3 REFINEMENT.
REMARK   3   PROGRAM     : BUSTER 2.10.4 (14-JUN-2023)
REMARK   3   AUTHORS     : BRICOGNE,BLANC,BRANDL,FLENSBURG,KELLER,
REMARK   3               : PACIOREK,ROVERSI,SHARFF,SMART,VONRHEIN,WOMACK;
REMARK   3               : MATTHEWS,TEN EYCK,TRONRUD
REMARK   3
REMARK   3  DATA USED IN REFINEMENT.
REMARK   3   RESOLUTION RANGE HIGH (ANGSTROMS) : 1.554
REMARK   3   RESOLUTION RANGE LOW  (ANGSTROMS) : 23.14
REMARK   3   DATA CUTOFF            (SIGMA(F)) : 0.000
REMARK   3   COMPLETENESS FOR RANGE        (%) : 80.5
REMARK   3   NUMBER OF REFLECTIONS             : 24249
REMARK   3
REMARK   3  FIT TO DATA USED IN REFINEMENT.
REMARK   3   CROSS-VALIDATION METHOD          : THROUGHOUT
REMARK   3   FREE R VALUE TEST SET SELECTION  : RANDOM
REMARK   3   R VALUE     (WORKING + TEST SET) : 0.2310
REMARK   3   R VALUE            (WORKING SET) : 0.2292
REMARK   3   FREE R VALUE                     : 0.2661
REMARK   3   FREE R VALUE TEST SET SIZE   (%) : 5.150
REMARK   3   FREE R VALUE TEST SET COUNT      : 1249
REMARK   3   ESTIMATED ERROR OF FREE R VALUE  : NULL
REMARK   3
REMARK   3  FIT IN THE HIGHEST RESOLUTION BIN.
REMARK   3   TOTAL NUMBER OF BINS USED           : 51
REMARK   3   BIN RESOLUTION RANGE HIGH       (A) : 1.55
REMARK   3   BIN RESOLUTION RANGE LOW        (A) : 1.67
REMARK   3   BIN COMPLETENESS (WORKING+TEST) (%) : 8.36
REMARK   3   REFLECTIONS IN BIN   (WORKING+TEST) : 485
REMARK   3   BIN R VALUE          (WORKING+TEST) : 0.6001
REMARK   3   REFLECTIONS IN BIN    (WORKING SET) : 456
REMARK   3   BIN R VALUE           (WORKING SET) : 0.6045
REMARK   3   BIN FREE R VALUE                    : 0.5328
REMARK   3   BIN FREE R VALUE TEST SET SIZE  (%) : 5.98
REMARK   3   BIN FREE R VALUE TEST SET COUNT     : 29
REMARK   3   ESTIMATED ERROR OF BIN FREE R VALUE : NULL
REMARK   3
REMARK   3  NUMBER OF NON-HYDROGEN ATOMS USED IN REFINEMENT.
REMARK   3   PROTEIN ATOMS            : 1476
REMARK   3   NUCLEIC ACID ATOMS       : 0
REMARK   3   HETEROGEN ATOMS          : 46
REMARK   3   SOLVENT ATOMS            : 111
REMARK   3
REMARK   3  B VALUES.
REMARK   3   FROM WILSON PLOT           (A**2) : 31.75
REMARK   3   MEAN B VALUE      (OVERALL, A**2) : 47.83
REMARK   3   OVERALL ANISOTROPIC B VALUE.
REMARK   3    B11 (A**2) : -6.50940
REMARK   3    B22 (A**2) : -6.50940
REMARK   3    B33 (A**2) : 13.01870
REMARK   3    B12 (A**2) : 0.00000
REMARK   3    B13 (A**2) : 0.00000
REMARK   3    B23 (A**2) : 0.00000
REMARK   3
REMARK   3  ESTIMATED COORDINATE ERROR.
REMARK   3   ESD FROM LUZZATI PLOT                    (A) : 0.34
REMARK   3   DPI (BLOW EQ-10) BASED ON R VALUE        (A) : 0.127
REMARK   3   DPI (BLOW EQ-9) BASED ON FREE R VALUE    (A) : 0.122
REMARK   3   DPI (CRUICKSHANK) BASED ON R VALUE       (A) : 0.120
REMARK   3   DPI (CRUICKSHANK) BASED ON FREE R VALUE  (A) : 0.118
REMARK   3
REMARK   3   REFERENCES: BLOW, D. (2002) ACTA CRYST D58, 792-797
REMARK   3               CRUICKSHANK, D.W.J. (1999) ACTA CRYST D55, 583-601
REMARK   3
REMARK   3  CORRELATION COEFFICIENTS.
REMARK   3   CORRELATION COEFFICIENT FO-FC      : 0.939
REMARK   3   CORRELATION COEFFICIENT FO-FC FREE : 0.926
REMARK   3
REMARK   3  X-RAY WEIGHT : 6.54
REMARK   3
REMARK   3  GEOMETRY FUNCTION.                                                  
REMARK   3   RESTRAINT LIBRARIES.                                               
REMARK   3    NUMBER OF LIBRARIES USED :   9                                    
REMARK   3    LIBRARY  1 : protgeo_eh99.dat (V1.6.4.20) 20220523  STANDARD      
REMARK   3                 AMINO ACID DICTIONARY. BONDS AND ANGLES FROM         
REMARK   3                 ENGH AND HUBER EH99. OTHER VALUES BASED ON           
REMARK   3                 PREVIOUS TNT OR TAKEN FROM CCP4. INCLUDES            
REMARK   3                 HYDROGEN ATOMS.                                      
REMARK   3    LIBRARY  2 : exoticaa.dat (V1.3.4.16) 20220523  COLLECTION        
REMARK   3                 OF NON-STANDARD AMINO ACIDS, MAINLY EH91             
REMARK   3                 WITHOUT IDEAL DISTANCE INFO                          
REMARK   3    LIBRARY  3 : nuclgeo.dat (V1.13.4.9) 20221011                     
REMARK   3    LIBRARY  4 : bcorrel.dat (V1.15.10.2) 20190616                    
REMARK   3    LIBRARY  5 : contact.dat (V1.15.12.10) 20191121                   
REMARK   3    LIBRARY  6 : idealdist_contact.dat (V1.3.4.13) 20220125           
REMARK   3                 IDEAL-DISTANCE CONTACT TERM DATA AS USED IN          
REMARK   3                 PROLSQ. VALUES USED HERE ARE BASED ON DATA           
REMARK   3                 HARVESTING OF PDB AS OF 20190109.                    
REMARK   3    LIBRARY  7 : restraints for LIG (unknown) from cif                
REMARK   3                 dictionary Z1102357527.cif; generated by GRADE       
REMARK   3                 1.2.21 (Feb 03 2022) from SMILES                     
REMARK   3                 O=C(NC1CCC(=O)NC1)c2cscn2 using MOGUL                
REMARK   3                 1.8.5(274361), CSD as541be, with quantum             
REMARK   3                 mechanics RM1                                        
REMARK   3    LIBRARY  8 : restraints for DMS (DIMETHYL SULFOXIDE) from         
REMARK   3                 cif dictionary DMS.cif; generated by grade2          
REMARK   3                 version 1.1.0a7 from                                 
REMARK   3                 PDB_chemical_components_definition_file              
REMARK   3                 ftp://ftp.ebi.ac.uk/pub/databases/msd/pdbechem_v     
REMARK   3                 2/D/DMS/DMS.cif using RDKit 2021.03.4                
REMARK   3                 ((DatabaseID PDB-DMS))                               
REMARK   3    LIBRARY  9 : assume.dat (V1.9.4.3) 20221011                       
REMARK   3                                                                      
REMARK   3   NUMBER OF GEOMETRIC FUNCTION TERMS DEFINED : 15                    
REMARK   3   TERM                          COUNT    WEIGHT   FUNCTION.          
REMARK   3    BOND LENGTHS              :   1637 ;   2.00 ;  HARMONIC           
REMARK   3    BOND ANGLES               :   2235 ;   2.00 ;  HARMONIC           
REMARK   3    TORSION ANGLES            :    563 ;   2.00 ;  SINUSOIDAL         
REMARK   3    TRIGONAL CARBON PLANES    :   NULL ;   NULL ;  NULL               
REMARK   3    GENERAL PLANES            :    294 ;   5.00 ;  HARMONIC           
REMARK   3    ISOTROPIC THERMAL FACTORS :   1637 ;  10.00 ;  HARMONIC           
REMARK   3    BAD NON-BONDED CONTACTS   :   NULL ;   NULL ;  NULL               
REMARK   3    IMPROPER TORSIONS         :   NULL ;   NULL ;  NULL               
REMARK   3    PSEUDOROTATION ANGLES     :   NULL ;   NULL ;  NULL               
REMARK   3    CHIRAL IMPROPER TORSION   :    205 ;   5.00 ;  SEMIHARMONIC       
REMARK   3    SUM OF OCCUPANCIES        :   NULL ;   NULL ;  NULL               
REMARK   3    UTILITY DISTANCES         :   NULL ;   NULL ;  NULL               
REMARK   3    UTILITY ANGLES            :   NULL ;   NULL ;  NULL               
REMARK   3    UTILITY TORSION           :   NULL ;   NULL ;  NULL               
REMARK   3    IDEAL-DIST CONTACT TERM   :   1356 ;   4.00 ;  SEMIHARMONIC       
REMARK   3                                                                      
REMARK   3   RMS DEVIATIONS FROM IDEAL VALUES.                                  
REMARK   3   BOND LENGTHS                       (A) : 0.010                     
REMARK   3   BOND ANGLES                  (DEGREES) : 1.00                      
REMARK   3   PEPTIDE OMEGA TORSION ANGLES (DEGREES) : 3.61                      
REMARK   3   OTHER TORSION ANGLES         (DEGREES) : 16.77                     
REMARK   3                                                                      
REMARK   3   SIMILARITY.                                                        
REMARK   3    NCS.                                                              
REMARK   3     NCS METHOD: NONE                                                 
REMARK   3    TARGET RESTRAINTS.                                                
REMARK   3     TARGET REPRESENTATION : NONE                                     
REMARK   3     TARGET STRUCTURE : NULL                                          
REMARK   3                                                                      
REMARK   3  TLS DETAILS.                                                        
REMARK   3   NUMBER OF TLS GROUPS  :            2                               
REMARK   3                                                                      
REMARK   3   TLS GROUP :            1                                           
REMARK   3    SET : { A|* }                                                     
REMARK   3    ORIGIN FOR THE GROUP (A):  -14.2882   -1.6869  -19.9071           
REMARK   3    T TENSOR                                                          
REMARK   3     T11:   -0.0261 T22:   -0.0987                                    
REMARK   3     T33:   -0.1326 T12:    0.1372                                    
REMARK   3     T13:    0.0720 T23:    0.0727                                    
REMARK   3    L TENSOR                                                          
REMARK   3     L11:    2.7271 L22:    2.8973                                    
REMARK   3     L33:    3.5467 L12:   -1.5765                                    
REMARK   3     L13:    0.3721 L23:    0.7548                                    
REMARK   3    S TENSOR                                                          
REMARK   3     S11:    0.4438 S12:    0.3320 S13:    0.2416                     
REMARK   3     S21:   -0.4272 S22:   -0.3629 S23:   -0.2000                     
REMARK   3     S31:    0.0854 S32:    0.3404 S33:   -0.0809                     
REMARK   3                                                                      
REMARK   3   TLS GROUP :            2                                           
REMARK   3    SET : { B|* }                                                     
REMARK   3    ORIGIN FOR THE GROUP (A):  -18.5244    1.1655  -15.5724           
REMARK   3    T TENSOR                                                          
REMARK   3     T11:    0.0361 T22:   -0.0243                                    
REMARK   3     T33:   -0.0055 T12:    0.1164                                    
REMARK   3     T13:    0.0163 T23:    0.0129                                    
REMARK   3    L TENSOR                                                          
REMARK   3     L11:    0.9925 L22:    1.0653                                    
REMARK   3     L33:    2.0468 L12:   -0.9544                                    
REMARK   3     L13:    0.4328 L23:   -0.1316                                    
REMARK   3    S TENSOR                                                          
REMARK   3     S11:    0.2524 S12:    0.1093 S13:    0.0842                     
REMARK   3     S21:   -0.0889 S22:   -0.2337 S23:    0.0529                     
REMARK   3     S31:    0.0813 S32:    0.1717 S33:   -0.0187                     
REMARK   3                                                                      
REMARK   3  REFINEMENT NOTES.                                                   
REMARK   3   NUMBER OF REFINEMENT NOTES :   1                                   
REMARK   3   NOTE   1 : IDEAL-DIST CONTACT TERM CONTACT SETUP. ALL ATOMS        
REMARK   3               HAVE CCP4 ATOM TYPE FROM LIBRARY                       
REMARK   3
REMARK   3  OTHER REFINEMENT REMARKS: NULL
REMARK   3
REMARK 290                                                            
REMARK 290 CRYSTALLOGRAPHIC SYMMETRY                                  
REMARK 290 SYMMETRY OPERATORS FOR SPACE GROUP: P 43 2 2               
REMARK 290                                                            
REMARK 290      SYMOP   SYMMETRY                                      
REMARK 290     NNNMMM   OPERATOR                                      
REMARK 290       1555   X,Y,Z                                         
REMARK 290       2555   -X,-Y,1/2+Z                                   
REMARK 290       3555   -Y,X,3/4+Z                                    
REMARK 290       4555   Y,-X,1/4+Z                                    
REMARK 290       5555   -X,Y,-Z                                       
REMARK 290       6555   X,-Y,1/2-Z                                    
REMARK 290       7555   Y,X,1/4-Z                                     
REMARK 290       8555   -Y,-X,3/4-Z                                   
REMARK 290                                                            
REMARK 290     WHERE NNN -> OPERATOR NUMBER                           
REMARK 290           MMM -> TRANSLATION VECTOR                        
REMARK 290                                                            
REMARK 290 CRYSTALLOGRAPHIC SYMMETRY TRANSFORMATIONS                  
REMARK 290 THE FOLLOWING TRANSFORMATIONS OPERATE ON THE ATOM/HETATM   
REMARK 290 RECORDS IN THIS ENTRY TO PRODUCE CRYSTALLOGRAPHICALLY      
REMARK 290 RELATED MOLECULES.                                         
REMARK 290   SMTRY1   1  1.000000  0.000000  0.000000        0.00000
REMARK 290   SMTRY2   1  0.000000  1.000000  0.000000        0.00000
REMARK 290   SMTRY3   1  0.000000  0.000000  1.000000        0.00000
REMARK 290   SMTRY1   2 -1.000000  0.000000  0.000000        0.00000
REMARK 290   SMTRY2   2  0.000000 -1.000000  0.000000        0.00000
REMARK 290   SMTRY3   2  0.000000  0.000000  1.000000      108.55950
REMARK 290   SMTRY1   3  0.000000 -1.000000  0.000000        0.00000
REMARK 290   SMTRY2   3  1.000000  0.000000  0.000000        0.00000
REMARK 290   SMTRY3   3  0.000000  0.000000  1.000000      162.83925
REMARK 290   SMTRY1   4  0.000000  1.000000  0.000000        0.00000
REMARK 290   SMTRY2   4 -1.000000  0.000000  0.000000        0.00000
REMARK 290   SMTRY3   4  0.000000  0.000000  1.000000       54.27975
REMARK 290   SMTRY1   5 -1.000000  0.000000  0.000000        0.00000
REMARK 290   SMTRY2   5  0.000000  1.000000  0.000000        0.00000
REMARK 290   SMTRY3   5  0.000000  0.000000 -1.000000        0.00000
REMARK 290   SMTRY1   6  1.000000  0.000000  0.000000        0.00000
REMARK 290   SMTRY2   6  0.000000 -1.000000  0.000000        0.00000
REMARK 290   SMTRY3   6  0.000000  0.000000 -1.000000      108.55950
REMARK 290   SMTRY1   7  0.000000  1.000000  0.000000        0.00000
REMARK 290   SMTRY2   7  1.000000  0.000000  0.000000        0.00000
REMARK 290   SMTRY3   7  0.000000  0.000000 -1.000000       54.27975
REMARK 290   SMTRY1   8  0.000000 -1.000000  0.000000        0.00000
REMARK 290   SMTRY2   8 -1.000000  0.000000  0.000000        0.00000
REMARK 290   SMTRY3   8  0.000000  0.000000 -1.000000      162.83925
REMARK 290                                                            
REMARK 290 REMARK: NULL                                               
CRYST1   42.580   42.580  217.119  90.00  90.00  90.00 P 43 2 2                 


$$$$
Zx0673b_ligand
  PyMOL3.0          3D                             0

 15 16  0  0  0  0  0  0  0  0999 V2000
   -6.8710   -0.0440    3.2950 C   0  0  0  0  0  0  0  0  0  0  0  0
   -7.8690    0.7780    3.5480 N   0  0  0  0  0  0  0  0  0  0  0  0
   -6.7680   -1.1130    3.8910 O   0  0  0  0  0  0  0  0  0  0  0  0
  -11.7290    4.9070    2.3250 S   0  0  0  0  0  0  0  0  0  0  0  0
   -5.8330    0.3750    2.2940 C   0  0  0  0  0  0  0  0  0  0  0  0
   -8.1050    2.4990    1.0470 N   0  0  0  0  0  0  0  0  0  0  0  0
   -8.0180    3.9850   -0.6630 O   0  0  0  0  0  0  0  0  0  0  0  0
   -5.8500    1.8630    1.9080 C   0  0  0  0  0  0  0  0  0  0  0  0
  -10.6060    4.9570    0.0250 N   0  0  0  0  0  0  0  0  0  0  0  0
   -7.8010    2.2320    3.4480 C   0  0  0  0  0  0  0  0  0  0  0  0
   -7.1470    2.6490    2.1440 C   0  0  0  0  0  0  0  0  0  0  0  0
   -8.5750    3.5470    0.3420 C   0  0  0  0  0  0  0  0  0  0  0  0
   -9.8280    4.1580    0.8530 C   0  0  0  0  0  0  0  0  0  0  0  0
  -11.6290    5.4050    0.6920 C   0  0  0  0  0  0  0  0  0  0  0  0
  -10.2890    4.0230    2.1220 C   0  0  0  0  0  0  0  0  0  0  0  0
  1  2  1  0  0  0  0
  1  5  1  0  0  0  0
  2 10  1  0  0  0  0
  1  3  2  0  0  0  0
  4 15  4  0  0  0  0
  5  8  1  0  0  0  0
  6 12  1  0  0  0  0
  8 11  1  0  0  0  0
  9 14  4  0  0  0  0
 10 11  1  0  0  0  0
  6 11  1  0  0  0  0
  7 12  2  0  0  0  0
 12 13  1  0  0  0  0
  9 13  4  0  0  0  0
 13 15  4  0  0  0  0
  4 14  4  0  0  0  0
M  END
>  <pdb_header>
COMPND    XX01ZVNS2B-x0673_B_501_XX01ZVNS2B-x0673+B+501+1


$$$$
Zx0687a
  PyMOL3.0          3D                             0

 11 11  0  0  0  0  0  0  0  0999 V2000
   -7.6580    5.6780  -15.9910 N   0  0  0  0  0  0  0  0  0  0  0  0
   -7.8350    5.5680  -13.5870 C   0  0  0  0  0  0  0  0  0  0  0  0
   -8.7610    3.9250  -15.0510 O   0  0  0  0  0  0  0  0  0  0  0  0
   -8.1450    4.9790  -14.9320 C   0  0  0  0  0  0  0  0  0  0  0  0
   -5.6660    4.8580  -19.5780 N   0  0  0  0  0  0  0  0  0  0  0  0
   -6.9780    5.2440  -17.1580 C   0  0  0  0  0  0  0  0  0  0  0  0
   -5.6000    5.4130  -17.2470 C   0  0  0  0  0  0  0  0  0  0  0  0
   -5.0010    5.2120  -18.4750 C   0  0  0  0  0  0  0  0  0  0  0  0
   -6.9830    4.6630  -19.4560 C   0  0  0  0  0  0  0  0  0  0  0  0
   -7.7050    4.8240  -18.2790 C   0  0  0  0  0  0  0  0  0  0  0  0
   -9.1790    4.5150  -18.2220 C   0  0  0  0  0  0  0  0  0  0  0  0
  1  6  1  0  0  0  0
  3  4  2  0  0  0  0
  1  4  1  0  0  0  0
  2  4  1  0  0  0  0
  5  8  4  0  0  0  0
  6  7  4  0  0  0  0
  6 10  4  0  0  0  0
  7  8  4  0  0  0  0
  5  9  4  0  0  0  0
  9 10  4  0  0  0  0
 10 11  1  0  0  0  0
M  END
>  <pdb_header>
HEADER    ----                                    18-MAY-23                     
TITLE     ---                                                                   
EXPDTA    X-RAY DIFFRACTION                                                     
REMARK --------------------- added by autoBUSTER ---------------------------------START
REMARK run at   = Fri Sep 29 18:14:34 BST 2023
REMARK     in   = /dls/labxchem/data/lb32627/lb32627-65/processing/analysis/model_building/XX01ZVNS2B-x0687
REMARK     user = kyf22269
REMARK     cmd  = \
REMARK            /dls_sw/apps/GPhL/BUSTER/20230726/autoBUSTER/bin/linux64/refine \
REMARK            -p \
REMARK            /dls/labxchem/data/lb32627/lb32627-65/processing/analysis/model_building/XX01ZVNS2B-x0687/cootOut/Refi
REMARK            -m \
REMARK            /dls/labxchem/data/lb32627/lb32627-65/processing/analysis/model_building/XX01ZVNS2B-x0687/XX01ZVNS2B-x
REMARK            -l \
REMARK            /dls/labxchem/data/lb32627/lb32627-65/processing/analysis/model_building/XX01ZVNS2B-x0687/Z1148747945.
REMARK            -autoncs -M TLSbasic -d Refine_7
REMARK Files used:
REMARK   PDB              = Refine_7/pdbchk.pdb
REMARK   MTZ              = /dls/labxchem/data/lb32627/lb32627-65/processing/analysis/model_building/XX01ZVNS2B-x0687/XX
REMARK output written to subdirectory = Refine_7
REMARK best refinement for F,SIGF with R/Rfree 0.2313/0.2628
REMARK header records are copied from input PDB file (apart from REMARK 3!)
REMARK --------------------- added by autoBUSTER -----------------------------------END
REMARK --------------------- added by autoBUSTER -------------------------------
REMARK run at   = Thu Jun 15 21:36:20 BST 2023                                  
REMARK     in   = /dls/labxchem/data/lb32627/lb32627-65/processing/analysis/mode
REMARK     user = xau79897                                                      
REMARK     cmd  = \                                                             
REMARK            /dls_sw/apps/GPhL/BUSTER/20230614/autoBUSTER/bin/linux64/refin
REMARK            -p \                                                          
REMARK            /dls/labxchem/data/lb32627/lb32627-65/processing/analysis/mode
REMARK            -m \                                                          
REMARK            /dls/labxchem/data/lb32627/lb32627-65/processing/analysis/mode
REMARK            -l \                                                          
REMARK            /dls/labxchem/data/lb32627/lb32627-65/processing/analysis/mode
REMARK            -autoncs -M TLSbasic StopOnGellySanityCheckError=no -d \      
REMARK            Refine_6                                                      
REMARK Files used:                                                              
REMARK   PDB              = Refine_6/pdbchk.pdb                                 
REMARK   MTZ              = /dls/labxchem/data/lb32627/lb32627-65/processing/ana
REMARK output written to subdirectory = Refine_6                                
REMARK best refinement for F,SIGF with R/Rfree 0.2313/0.2626                    
REMARK header records are copied from input PDB file (apart from REMARK 3!)     
REMARK --------------------- added by autoBUSTER -------------------------------
REMARK --------------------- added by autoBUSTER -------------------------------
REMARK run at   = Thu Jun 15 18:32:25 BST 2023                                  
REMARK     in   = /dls/labxchem/data/lb32627/lb32627-65/processing/analysis/mode
REMARK     user = xau79897                                                      
REMARK     cmd  = \                                                             
REMARK            /dls_sw/apps/GPhL/BUSTER/20230614/autoBUSTER/bin/linux64/refin
REMARK            -p \                                                          
REMARK            /dls/labxchem/data/lb32627/lb32627-65/processing/analysis/mode
REMARK            -m \                                                          
REMARK            /dls/labxchem/data/lb32627/lb32627-65/processing/analysis/mode
REMARK            -l \                                                          
REMARK            /dls/labxchem/data/lb32627/lb32627-65/processing/analysis/mode
REMARK            -autoncs -M TLSbasic -B user -Gelly gelly.dat \               
REMARK            StopOnGellySanityCheckError=no -d Refine_5                    
REMARK Files used:                                                              
REMARK   PDB              = Refine_5/pdbchk.pdb                                 
REMARK   MTZ              = /dls/labxchem/data/lb32627/lb32627-65/processing/ana
REMARK   Gelly commands       = /dls/labxchem/data/lb32627/lb32627-65/processing
REMARK output written to subdirectory = Refine_5                                
REMARK best refinement for F,SIGF with R/Rfree 0.2322/0.2601                    
REMARK header records are copied from input PDB file (apart from REMARK 3!)     
REMARK --------------------- added by autoBUSTER -------------------------------
REMARK --------------------- added by autoBUSTER -------------------------------
REMARK run at   = Tue May 30 01:11:01 BST 2023                                  
REMARK     in   = /dls/labxchem/data/lb32627/lb32627-65/processing/analysis/mode
REMARK     user = xau79897                                                      
REMARK     cmd  = \                                                             
REMARK            /dls_sw/apps/GPhL/BUSTER/20230217/autoBUSTER/bin/linux64/refin
REMARK            -p \                                                          
REMARK            /dls/labxchem/data/lb32627/lb32627-65/processing/analysis/mode
REMARK            -m \                                                          
REMARK            /dls/labxchem/data/lb32627/lb32627-65/processing/analysis/mode
REMARK            -l \                                                          
REMARK            /dls/labxchem/data/lb32627/lb32627-65/processing/analysis/mode
REMARK            -autoncs -M TLSbasic -B user -Gelly gelly.dat \               
REMARK            StopOnGellySanityCheckError=no -d Refine_4                    
REMARK Files used:                                                              
REMARK   PDB              = Refine_4/pdbchk.pdb                                 
REMARK   MTZ              = /dls/labxchem/data/lb32627/lb32627-65/processing/ana
REMARK   Gelly commands       = /dls/labxchem/data/lb32627/lb32627-65/processing
REMARK output written to subdirectory = Refine_4                                
REMARK best refinement for F,SIGF with R/Rfree 0.2334/0.2604                    
REMARK header records are copied from input PDB file (apart from REMARK 3!)     
REMARK --------------------- added by autoBUSTER -------------------------------
REMARK --------------------- added by autoBUSTER -------------------------------
REMARK run at   = Tue May 23 17:09:43 BST 2023                                  
REMARK     in   = /dls/labxchem/data/lb32627/lb32627-65/processing/analysis/mode
REMARK     user = xau79897                                                      
REMARK     cmd  = \                                                             
REMARK            /dls_sw/apps/GPhL/BUSTER/20230217/autoBUSTER/bin/linux64/refin
REMARK            -p \                                                          
REMARK            /dls/labxchem/data/lb32627/lb32627-65/processing/analysis/mode
REMARK            -m \                                                          
REMARK            /dls/labxchem/data/lb32627/lb32627-65/processing/analysis/mode
REMARK            -l \                                                          
REMARK            /dls/labxchem/data/lb32627/lb32627-65/processing/analysis/mode
REMARK            -autoncs -M TLSbasic -d Refine_3                              
REMARK Files used:                                                              
REMARK   PDB              = Refine_3/pdbchk.pdb                                 
REMARK   MTZ              = /dls/labxchem/data/lb32627/lb32627-65/processing/ana
REMARK output written to subdirectory = Refine_3                                
REMARK best refinement for F,SIGF with R/Rfree 0.2337/0.2569                    
REMARK header records are copied from input PDB file (apart from REMARK 3!)     
REMARK --------------------- added by autoBUSTER -------------------------------
REMARK   2                                                            
REMARK   2 RESOLUTION.    1.49 ANGSTROMS.
REMARK   3
REMARK   3 REFINEMENT.
REMARK   3   PROGRAM     : BUSTER 2.10.4 (26-JUL-2023)
REMARK   3   AUTHORS     : BRICOGNE,BLANC,BRANDL,FLENSBURG,KELLER,
REMARK   3               : PACIOREK,ROVERSI,SHARFF,SMART,VONRHEIN,WOMACK;
REMARK   3               : MATTHEWS,TEN EYCK,TRONRUD
REMARK   3
REMARK   3  DATA USED IN REFINEMENT.
REMARK   3   RESOLUTION RANGE HIGH (ANGSTROMS) : 1.492
REMARK   3   RESOLUTION RANGE LOW  (ANGSTROMS) : 25.07
REMARK   3   DATA CUTOFF            (SIGMA(F)) : 0.000
REMARK   3   COMPLETENESS FOR RANGE        (%) : 89.5
REMARK   3   NUMBER OF REFLECTIONS             : 30562
REMARK   3
REMARK   3  FIT TO DATA USED IN REFINEMENT.
REMARK   3   CROSS-VALIDATION METHOD          : THROUGHOUT
REMARK   3   FREE R VALUE TEST SET SELECTION  : RANDOM
REMARK   3   R VALUE     (WORKING + TEST SET) : 0.2329
REMARK   3   R VALUE            (WORKING SET) : 0.2313
REMARK   3   FREE R VALUE                     : 0.2628
REMARK   3   FREE R VALUE TEST SET SIZE   (%) : 5.090
REMARK   3   FREE R VALUE TEST SET COUNT      : 1556
REMARK   3   ESTIMATED ERROR OF FREE R VALUE  : NULL
REMARK   3
REMARK   3  FIT IN THE HIGHEST RESOLUTION BIN.
REMARK   3   TOTAL NUMBER OF BINS USED           : 51
REMARK   3   BIN RESOLUTION RANGE HIGH       (A) : 1.49
REMARK   3   BIN RESOLUTION RANGE LOW        (A) : 1.55
REMARK   3   BIN COMPLETENESS (WORKING+TEST) (%) : 18.52
REMARK   3   REFLECTIONS IN BIN   (WORKING+TEST) : 612
REMARK   3   BIN R VALUE          (WORKING+TEST) : 0.4975
REMARK   3   REFLECTIONS IN BIN    (WORKING SET) : 582
REMARK   3   BIN R VALUE           (WORKING SET) : 0.4958
REMARK   3   BIN FREE R VALUE                    : 0.5341
REMARK   3   BIN FREE R VALUE TEST SET SIZE  (%) : 4.90
REMARK   3   BIN FREE R VALUE TEST SET COUNT     : 30
REMARK   3   ESTIMATED ERROR OF BIN FREE R VALUE : NULL
REMARK   3
REMARK   3  NUMBER OF NON-HYDROGEN ATOMS USED IN REFINEMENT.
REMARK   3   PROTEIN ATOMS            : 1476
REMARK   3   NUCLEIC ACID ATOMS       : 0
REMARK   3   HETEROGEN ATOMS          : 19
REMARK   3   SOLVENT ATOMS            : 93
REMARK   3
REMARK   3  B VALUES.
REMARK   3   FROM WILSON PLOT           (A**2) : 30.75
REMARK   3   MEAN B VALUE      (OVERALL, A**2) : 47.73
REMARK   3   OVERALL ANISOTROPIC B VALUE.
REMARK   3    B11 (A**2) : -4.32780
REMARK   3    B22 (A**2) : -4.32780
REMARK   3    B33 (A**2) : 8.65560
REMARK   3    B12 (A**2) : 0.00000
REMARK   3    B13 (A**2) : 0.00000
REMARK   3    B23 (A**2) : 0.00000
REMARK   3
REMARK   3  ESTIMATED COORDINATE ERROR.
REMARK   3   ESD FROM LUZZATI PLOT                    (A) : 0.30
REMARK   3   DPI (BLOW EQ-10) BASED ON R VALUE        (A) : 0.097
REMARK   3   DPI (BLOW EQ-9) BASED ON FREE R VALUE    (A) : 0.096
REMARK   3   DPI (CRUICKSHANK) BASED ON R VALUE       (A) : 0.093
REMARK   3   DPI (CRUICKSHANK) BASED ON FREE R VALUE  (A) : 0.094
REMARK   3
REMARK   3   REFERENCES: BLOW, D. (2002) ACTA CRYST D58, 792-797
REMARK   3               CRUICKSHANK, D.W.J. (1999) ACTA CRYST D55, 583-601
REMARK   3
REMARK   3  CORRELATION COEFFICIENTS.
REMARK   3   CORRELATION COEFFICIENT FO-FC      : 0.954
REMARK   3   CORRELATION COEFFICIENT FO-FC FREE : 0.941
REMARK   3
REMARK   3  X-RAY WEIGHT : 6.52
REMARK   3
REMARK   3  GEOMETRY FUNCTION.                                                  
REMARK   3   RESTRAINT LIBRARIES.                                               
REMARK   3    NUMBER OF LIBRARIES USED :   9                                    
REMARK   3    LIBRARY  1 : protgeo_eh99.dat (V1.6.4.20) 20220523  STANDARD      
REMARK   3                 AMINO ACID DICTIONARY. BONDS AND ANGLES FROM         
REMARK   3                 ENGH AND HUBER EH99. OTHER VALUES BASED ON           
REMARK   3                 PREVIOUS TNT OR TAKEN FROM CCP4. INCLUDES            
REMARK   3                 HYDROGEN ATOMS.                                      
REMARK   3    LIBRARY  2 : exoticaa.dat (V1.3.4.16) 20220523  COLLECTION        
REMARK   3                 OF NON-STANDARD AMINO ACIDS, MAINLY EH91             
REMARK   3                 WITHOUT IDEAL DISTANCE INFO                          
REMARK   3    LIBRARY  3 : nuclgeo.dat (V1.13.4.9) 20221011                     
REMARK   3    LIBRARY  4 : bcorrel.dat (V1.15.10.2) 20190616                    
REMARK   3    LIBRARY  5 : contact.dat (V1.15.12.10) 20191121                   
REMARK   3    LIBRARY  6 : idealdist_contact.dat (V1.3.4.14) 20230724           
REMARK   3                 IDEAL-DISTANCE CONTACT TERM DATA AS USED IN          
REMARK   3                 PROLSQ. VALUES USED HERE ARE BASEd ON DATA           
REMARK   3                 HARVESTING OF PDB AS OF 20190109                     
REMARK   3    LIBRARY  7 : restraints for LIG (unknown) from cif                
REMARK   3                 dictionary Z1148747945.cif; generated by GRADE       
REMARK   3                 1.2.21 (Feb 03 2022) from SMILES                     
REMARK   3                 CC(=O)Nc1ccncc1C using MOGUL 1.8.5(274361), CSD      
REMARK   3                 as541be, with quantum mechanics RM1                  
REMARK   3    LIBRARY  8 : restraints for DMS (DIMETHYL SULFOXIDE) from         
REMARK   3                 cif dictionary DMS.cif; generated by grade2          
REMARK   3                 version 1.1.0a7 from                                 
REMARK   3                 PDB_chemical_components_definition_file              
REMARK   3                 ftp://ftp.ebi.ac.uk/pub/databases/msd/pdbechem_v     
REMARK   3                 2/D/DMS/DMS.cif using RDKit 2021.03.4                
REMARK   3                 ((DatabaseID PDB-DMS))                               
REMARK   3    LIBRARY  9 : assume.dat (V1.9.4.3) 20221011                       
REMARK   3                                                                      
REMARK   3   NUMBER OF GEOMETRIC FUNCTION TERMS DEFINED : 15                    
REMARK   3   TERM                          COUNT    WEIGHT   FUNCTION.          
REMARK   3    BOND LENGTHS              :   1572 ;   2.00 ;  HARMONIC           
REMARK   3    BOND ANGLES               :   2136 ;   2.00 ;  HARMONIC           
REMARK   3    TORSION ANGLES            :    528 ;   2.00 ;  SINUSOIDAL         
REMARK   3    TRIGONAL CARBON PLANES    :   NULL ;   NULL ;  NULL               
REMARK   3    GENERAL PLANES            :    275 ;   5.00 ;  HARMONIC           
REMARK   3    ISOTROPIC THERMAL FACTORS :   1572 ;  10.00 ;  HARMONIC           
REMARK   3    BAD NON-BONDED CONTACTS   :   NULL ;   NULL ;  NULL               
REMARK   3    IMPROPER TORSIONS         :   NULL ;   NULL ;  NULL               
REMARK   3    PSEUDOROTATION ANGLES     :   NULL ;   NULL ;  NULL               
REMARK   3    CHIRAL IMPROPER TORSION   :    192 ;   5.00 ;  SEMIHARMONIC       
REMARK   3    SUM OF OCCUPANCIES        :   NULL ;   NULL ;  NULL               
REMARK   3    UTILITY DISTANCES         :   NULL ;   NULL ;  NULL               
REMARK   3    UTILITY ANGLES            :   NULL ;   NULL ;  NULL               
REMARK   3    UTILITY TORSION           :   NULL ;   NULL ;  NULL               
REMARK   3    IDEAL-DIST CONTACT TERM   :   1268 ;   4.00 ;  SEMIHARMONIC       
REMARK   3                                                                      
REMARK   3   RMS DEVIATIONS FROM IDEAL VALUES.                                  
REMARK   3   BOND LENGTHS                       (A) : 0.011                     
REMARK   3   BOND ANGLES                  (DEGREES) : 1.03                      
REMARK   3   PEPTIDE OMEGA TORSION ANGLES (DEGREES) : 4.07                      
REMARK   3   OTHER TORSION ANGLES         (DEGREES) : 16.86                     
REMARK   3                                                                      
REMARK   3   SIMILARITY.                                                        
REMARK   3    NCS.                                                              
REMARK   3     NCS METHOD: NONE                                                 
REMARK   3    TARGET RESTRAINTS.                                                
REMARK   3     TARGET REPRESENTATION : NONE                                     
REMARK   3     TARGET STRUCTURE : NULL                                          
REMARK   3                                                                      
REMARK   3  TLS DETAILS.                                                        
REMARK   3   NUMBER OF TLS GROUPS  :            2                               
REMARK   3                                                                      
REMARK   3   TLS GROUP :            1                                           
REMARK   3    SET : { A|* }                                                     
REMARK   3    ORIGIN FOR THE GROUP (A):  -13.7188   -1.2467  -19.3246           
REMARK   3    T TENSOR                                                          
REMARK   3     T11:    0.0248 T22:    0.0062                                    
REMARK   3     T33:   -0.1633 T12:    0.1426                                    
REMARK   3     T13:    0.1126 T23:    0.0857                                    
REMARK   3    L TENSOR                                                          
REMARK   3     L11:    2.8422 L22:    3.3775                                    
REMARK   3     L33:    3.5170 L12:   -1.7611                                    
REMARK   3     L13:    1.3288 L23:    0.5339                                    
REMARK   3    S TENSOR                                                          
REMARK   3     S11:    0.4594 S12:    0.4500 S13:    0.2823                     
REMARK   3     S21:   -0.5604 S22:   -0.3896 S23:   -0.2938                     
REMARK   3     S31:   -0.0787 S32:    0.6476 S33:   -0.0698                     
REMARK   3                                                                      
REMARK   3   TLS GROUP :            2                                           
REMARK   3    SET : { B|* }                                                     
REMARK   3    ORIGIN FOR THE GROUP (A):  -18.7024    1.3355  -15.4017           
REMARK   3    T TENSOR                                                          
REMARK   3     T11:    0.0822 T22:   -0.0024                                    
REMARK   3     T33:   -0.0270 T12:    0.1163                                    
REMARK   3     T13:    0.0287 T23:    0.0212                                    
REMARK   3    L TENSOR                                                          
REMARK   3     L11:    1.2291 L22:    1.1022                                    
REMARK   3     L33:    2.1264 L12:   -1.0683                                    
REMARK   3     L13:    1.1590 L23:   -0.1257                                    
REMARK   3    S TENSOR                                                          
REMARK   3     S11:    0.2942 S12:    0.1678 S13:    0.0892                     
REMARK   3     S21:   -0.1837 S22:   -0.2936 S23:    0.0700                     
REMARK   3     S31:   -0.0144 S32:    0.2570 S33:   -0.0006                     
REMARK   3                                                                      
REMARK   3  REFINEMENT NOTES.                                                   
REMARK   3   NUMBER OF REFINEMENT NOTES :   1                                   
REMARK   3   NOTE   1 : IDEAL-DIST CONTACT TERM CONTACT SETUP. ALL ATOMS        
REMARK   3               HAVE CCP4 ATOM TYPE FROM LIBRARY                       
REMARK   3
REMARK   3  OTHER REFINEMENT REMARKS: NULL
REMARK   3
REMARK 290                                                            
REMARK 290 CRYSTALLOGRAPHIC SYMMETRY                                  
REMARK 290 SYMMETRY OPERATORS FOR SPACE GROUP: P 43 2 2               
REMARK 290                                                            
REMARK 290      SYMOP   SYMMETRY                                      
REMARK 290     NNNMMM   OPERATOR                                      
REMARK 290       1555   X,Y,Z                                         
REMARK 290       2555   -X,-Y,1/2+Z                                   
REMARK 290       3555   -Y,X,3/4+Z                                    
REMARK 290       4555   Y,-X,1/4+Z                                    
REMARK 290       5555   -X,Y,-Z                                       
REMARK 290       6555   X,-Y,1/2-Z                                    
REMARK 290       7555   Y,X,1/4-Z                                     
REMARK 290       8555   -Y,-X,3/4-Z                                   
REMARK 290                                                            
REMARK 290     WHERE NNN -> OPERATOR NUMBER                           
REMARK 290           MMM -> TRANSLATION VECTOR                        
REMARK 290                                                            
REMARK 290 CRYSTALLOGRAPHIC SYMMETRY TRANSFORMATIONS                  
REMARK 290 THE FOLLOWING TRANSFORMATIONS OPERATE ON THE ATOM/HETATM   
REMARK 290 RECORDS IN THIS ENTRY TO PRODUCE CRYSTALLOGRAPHICALLY      
REMARK 290 RELATED MOLECULES.                                         
REMARK 290   SMTRY1   1  1.000000  0.000000  0.000000        0.00000
REMARK 290   SMTRY2   1  0.000000  1.000000  0.000000        0.00000
REMARK 290   SMTRY3   1  0.000000  0.000000  1.000000        0.00000
REMARK 290   SMTRY1   2 -1.000000  0.000000  0.000000        0.00000
REMARK 290   SMTRY2   2  0.000000 -1.000000  0.000000        0.00000
REMARK 290   SMTRY3   2  0.000000  0.000000  1.000000      108.25200
REMARK 290   SMTRY1   3  0.000000 -1.000000  0.000000        0.00000
REMARK 290   SMTRY2   3  1.000000  0.000000  0.000000        0.00000
REMARK 290   SMTRY3   3  0.000000  0.000000  1.000000      162.37800
REMARK 290   SMTRY1   4  0.000000  1.000000  0.000000        0.00000
REMARK 290   SMTRY2   4 -1.000000  0.000000  0.000000        0.00000
REMARK 290   SMTRY3   4  0.000000  0.000000  1.000000       54.12600
REMARK 290   SMTRY1   5 -1.000000  0.000000  0.000000        0.00000
REMARK 290   SMTRY2   5  0.000000  1.000000  0.000000        0.00000
REMARK 290   SMTRY3   5  0.000000  0.000000 -1.000000        0.00000
REMARK 290   SMTRY1   6  1.000000  0.000000  0.000000        0.00000
REMARK 290   SMTRY2   6  0.000000 -1.000000  0.000000        0.00000
REMARK 290   SMTRY3   6  0.000000  0.000000 -1.000000      108.25200
REMARK 290   SMTRY1   7  0.000000  1.000000  0.000000        0.00000
REMARK 290   SMTRY2   7  1.000000  0.000000  0.000000        0.00000
REMARK 290   SMTRY3   7  0.000000  0.000000 -1.000000       54.12600
REMARK 290   SMTRY1   8  0.000000 -1.000000  0.000000        0.00000
REMARK 290   SMTRY2   8 -1.000000  0.000000  0.000000        0.00000
REMARK 290   SMTRY3   8  0.000000  0.000000 -1.000000      162.37800
REMARK 290                                                            
REMARK 290 REMARK: NULL                                               
CRYST1   42.795   42.795  216.504  90.00  90.00  90.00 P 43 2 2                 


$$$$
Zx0687a_ligand
  PyMOL3.0          3D                             0

 11 11  0  0  0  0  0  0  0  0999 V2000
   -8.1450    4.9790  -14.9320 C   0  0  0  0  0  0  0  0  0  0  0  0
   -7.6580    5.6780  -15.9910 N   0  0  0  0  0  0  0  0  0  0  0  0
   -8.7610    3.9250  -15.0510 O   0  0  0  0  0  0  0  0  0  0  0  0
   -7.8350    5.5680  -13.5870 C   0  0  0  0  0  0  0  0  0  0  0  0
   -5.6660    4.8580  -19.5780 N   0  0  0  0  0  0  0  0  0  0  0  0
   -6.9780    5.2440  -17.1580 C   0  0  0  0  0  0  0  0  0  0  0  0
   -7.7050    4.8240  -18.2790 C   0  0  0  0  0  0  0  0  0  0  0  0
   -9.1790    4.5150  -18.2220 C   0  0  0  0  0  0  0  0  0  0  0  0
   -6.9830    4.6630  -19.4560 C   0  0  0  0  0  0  0  0  0  0  0  0
   -5.0010    5.2120  -18.4750 C   0  0  0  0  0  0  0  0  0  0  0  0
   -5.6000    5.4130  -17.2470 C   0  0  0  0  0  0  0  0  0  0  0  0
  1  2  1  0  0  0  0
  1  4  1  0  0  0  0
  2  6  1  0  0  0  0
  1  3  2  0  0  0  0
  5 10  4  0  0  0  0
  6  7  4  0  0  0  0
  6 11  4  0  0  0  0
  7  8  1  0  0  0  0
  7  9  4  0  0  0  0
  5  9  4  0  0  0  0
 10 11  4  0  0  0  0
M  END
>  <pdb_header>
COMPND    XX01ZVNS2B-x0687_B_301_XX01ZVNS2B-x1291+B+301+1


$$$$
Zx0693a
  PyMOL3.0          3D                             0

 10 10  0  0  0  0  0  0  0  0999 V2000
   -8.5170    4.6650  -15.1330 N   0  0  0  0  0  0  0  0  0  0  0  0
   -6.3590    5.8590  -14.9360 C   0  0  0  0  0  0  0  0  0  0  0  0
   -9.5800    4.3410  -18.3620 O   0  0  0  0  0  0  0  0  0  0  0  0
   -7.5050    5.3190  -15.7280 C   0  0  0  0  0  0  0  0  0  0  0  0
   -9.4370    4.2290  -16.0820 N   0  0  0  0  0  0  0  0  0  0  0  0
   -6.9190    5.0790  -20.4580 O   0  0  0  0  0  0  0  0  0  0  0  0
   -9.0040    4.6120  -17.3050 C   0  0  0  0  0  0  0  0  0  0  0  0
   -7.7510    5.3350  -17.0970 C   0  0  0  0  0  0  0  0  0  0  0  0
   -6.9990    5.9650  -18.2340 C   0  0  0  0  0  0  0  0  0  0  0  0
   -6.3830    4.9570  -19.1520 C   0  0  0  0  0  0  0  0  0  0  0  0
  1  4  4  0  0  0  0
  3  7  2  0  0  0  0
  2  4  1  0  0  0  0
  1  5  4  0  0  0  0
  5  7  4  0  0  0  0
  7  8  4  0  0  0  0
  4  8  4  0  0  0  0
  8  9  1  0  0  0  0
  9 10  1  0  0  0  0
  6 10  1  0  0  0  0
M  END
>  <pdb_header>
HEADER    ----                                    18-MAY-23                     
TITLE     ---                                                                   
EXPDTA    X-RAY DIFFRACTION                                                     
REMARK --------------------- added by autoBUSTER ---------------------------------START
REMARK run at   = Fri Sep 29 18:15:16 BST 2023
REMARK     in   = /dls/labxchem/data/lb32627/lb32627-65/processing/analysis/model_building/XX01ZVNS2B-x0693
REMARK     user = kyf22269
REMARK     cmd  = \
REMARK            /dls_sw/apps/GPhL/BUSTER/20230726/autoBUSTER/bin/linux64/refine \
REMARK            -p \
REMARK            /dls/labxchem/data/lb32627/lb32627-65/processing/analysis/model_building/XX01ZVNS2B-x0693/cootOut/Refi
REMARK            -m \
REMARK            /dls/labxchem/data/lb32627/lb32627-65/processing/analysis/model_building/XX01ZVNS2B-x0693/XX01ZVNS2B-x
REMARK            -l \
REMARK            /dls/labxchem/data/lb32627/lb32627-65/processing/analysis/model_building/XX01ZVNS2B-x0693/Z1165350851.
REMARK            -autoncs -M TLSbasic -d Refine_6
REMARK Files used:
REMARK   PDB              = Refine_6/pdbchk.pdb
REMARK   MTZ              = /dls/labxchem/data/lb32627/lb32627-65/processing/analysis/model_building/XX01ZVNS2B-x0693/XX
REMARK output written to subdirectory = Refine_6
REMARK best refinement for F,SIGF with R/Rfree 0.2321/0.2670
REMARK header records are copied from input PDB file (apart from REMARK 3!)
REMARK --------------------- added by autoBUSTER -----------------------------------END
REMARK --------------------- added by autoBUSTER -------------------------------
REMARK run at   = Thu Jun 15 18:46:37 BST 2023                                  
REMARK     in   = /dls/labxchem/data/lb32627/lb32627-65/processing/analysis/mode
REMARK     user = xau79897                                                      
REMARK     cmd  = \                                                             
REMARK            /dls_sw/apps/GPhL/BUSTER/20230614/autoBUSTER/bin/linux64/refin
REMARK            -p \                                                          
REMARK            /dls/labxchem/data/lb32627/lb32627-65/processing/analysis/mode
REMARK            -m \                                                          
REMARK            /dls/labxchem/data/lb32627/lb32627-65/processing/analysis/mode
REMARK            -l \                                                          
REMARK            /dls/labxchem/data/lb32627/lb32627-65/processing/analysis/mode
REMARK            -autoncs -M TLSbasic -B user -Gelly gelly.dat \               
REMARK            StopOnGellySanityCheckError=no -d Refine_5                    
REMARK Files used:                                                              
REMARK   PDB              = Refine_5/pdbchk.pdb                                 
REMARK   MTZ              = /dls/labxchem/data/lb32627/lb32627-65/processing/ana
REMARK   Gelly commands       = /dls/labxchem/data/lb32627/lb32627-65/processing
REMARK output written to subdirectory = Refine_5                                
REMARK best refinement for F,SIGF with R/Rfree 0.2321/0.2672                    
REMARK header records are copied from input PDB file (apart from REMARK 3!)     
REMARK --------------------- added by autoBUSTER -------------------------------
REMARK --------------------- added by autoBUSTER -------------------------------
REMARK run at   = Tue May 30 13:09:00 BST 2023                                  
REMARK     in   = /dls/labxchem/data/lb32627/lb32627-65/processing/analysis/mode
REMARK     user = xau79897                                                      
REMARK     cmd  = \                                                             
REMARK            /dls_sw/apps/GPhL/BUSTER/20230217/autoBUSTER/bin/linux64/refin
REMARK            -p \                                                          
REMARK            /dls/labxchem/data/lb32627/lb32627-65/processing/analysis/mode
REMARK            -m \                                                          
REMARK            /dls/labxchem/data/lb32627/lb32627-65/processing/analysis/mode
REMARK            -l \                                                          
REMARK            /dls/labxchem/data/lb32627/lb32627-65/processing/analysis/mode
REMARK            -autoncs -M TLSbasic -B user -Gelly gelly.dat \               
REMARK            StopOnGellySanityCheckError=no -d Refine_4                    
REMARK Files used:                                                              
REMARK   PDB              = Refine_4/pdbchk.pdb                                 
REMARK   MTZ              = /dls/labxchem/data/lb32627/lb32627-65/processing/ana
REMARK   Gelly commands       = /dls/labxchem/data/lb32627/lb32627-65/processing
REMARK output written to subdirectory = Refine_4                                
REMARK best refinement for F,SIGF with R/Rfree 0.2324/0.2659                    
REMARK header records are copied from input PDB file (apart from REMARK 3!)     
REMARK --------------------- added by autoBUSTER -------------------------------
REMARK --------------------- added by autoBUSTER -------------------------------
REMARK run at   = Tue May 23 17:10:00 BST 2023                                  
REMARK     in   = /dls/labxchem/data/lb32627/lb32627-65/processing/analysis/mode
REMARK     user = xau79897                                                      
REMARK     cmd  = \                                                             
REMARK            /dls_sw/apps/GPhL/BUSTER/20230217/autoBUSTER/bin/linux64/refin
REMARK            -p \                                                          
REMARK            /dls/labxchem/data/lb32627/lb32627-65/processing/analysis/mode
REMARK            -m \                                                          
REMARK            /dls/labxchem/data/lb32627/lb32627-65/processing/analysis/mode
REMARK            -l \                                                          
REMARK            /dls/labxchem/data/lb32627/lb32627-65/processing/analysis/mode
REMARK            -autoncs -M TLSbasic -d Refine_3                              
REMARK Files used:                                                              
REMARK   PDB              = Refine_3/pdbchk.pdb                                 
REMARK   MTZ              = /dls/labxchem/data/lb32627/lb32627-65/processing/ana
REMARK output written to subdirectory = Refine_3                                
REMARK best refinement for F,SIGF with R/Rfree 0.2332/0.2614                    
REMARK header records are copied from input PDB file (apart from REMARK 3!)     
REMARK --------------------- added by autoBUSTER -------------------------------
REMARK   2                                                            
REMARK   2 RESOLUTION.    1.64 ANGSTROMS.
REMARK   3
REMARK   3 REFINEMENT.
REMARK   3   PROGRAM     : BUSTER 2.10.4 (26-JUL-2023)
REMARK   3   AUTHORS     : BRICOGNE,BLANC,BRANDL,FLENSBURG,KELLER,
REMARK   3               : PACIOREK,ROVERSI,SHARFF,SMART,VONRHEIN,WOMACK;
REMARK   3               : MATTHEWS,TEN EYCK,TRONRUD
REMARK   3
REMARK   3  DATA USED IN REFINEMENT.
REMARK   3   RESOLUTION RANGE HIGH (ANGSTROMS) : 1.640
REMARK   3   RESOLUTION RANGE LOW  (ANGSTROMS) : 33.59
REMARK   3   DATA CUTOFF            (SIGMA(F)) : 0.000
REMARK   3   COMPLETENESS FOR RANGE        (%) : 95.9
REMARK   3   NUMBER OF REFLECTIONS             : 24879
REMARK   3
REMARK   3  FIT TO DATA USED IN REFINEMENT.
REMARK   3   CROSS-VALIDATION METHOD          : THROUGHOUT
REMARK   3   FREE R VALUE TEST SET SELECTION  : RANDOM
REMARK   3   R VALUE     (WORKING + TEST SET) : 0.2338
REMARK   3   R VALUE            (WORKING SET) : 0.2321
REMARK   3   FREE R VALUE                     : 0.2670
REMARK   3   FREE R VALUE TEST SET SIZE   (%) : 5.100
REMARK   3   FREE R VALUE TEST SET COUNT      : 1268
REMARK   3   ESTIMATED ERROR OF FREE R VALUE  : NULL
REMARK   3
REMARK   3  FIT IN THE HIGHEST RESOLUTION BIN.
REMARK   3   TOTAL NUMBER OF BINS USED           : 51
REMARK   3   BIN RESOLUTION RANGE HIGH       (A) : 1.64
REMARK   3   BIN RESOLUTION RANGE LOW        (A) : 1.66
REMARK   3   BIN COMPLETENESS (WORKING+TEST) (%) : 57.59
REMARK   3   REFLECTIONS IN BIN   (WORKING+TEST) : 498
REMARK   3   BIN R VALUE          (WORKING+TEST) : 0.5750
REMARK   3   REFLECTIONS IN BIN    (WORKING SET) : 481
REMARK   3   BIN R VALUE           (WORKING SET) : 0.5806
REMARK   3   BIN FREE R VALUE                    : 0.4154
REMARK   3   BIN FREE R VALUE TEST SET SIZE  (%) : 3.41
REMARK   3   BIN FREE R VALUE TEST SET COUNT     : 17
REMARK   3   ESTIMATED ERROR OF BIN FREE R VALUE : NULL
REMARK   3
REMARK   3  NUMBER OF NON-HYDROGEN ATOMS USED IN REFINEMENT.
REMARK   3   PROTEIN ATOMS            : 1476
REMARK   3   NUCLEIC ACID ATOMS       : 0
REMARK   3   HETEROGEN ATOMS          : 18
REMARK   3   SOLVENT ATOMS            : 93
REMARK   3
REMARK   3  B VALUES.
REMARK   3   FROM WILSON PLOT           (A**2) : 36.41
REMARK   3   MEAN B VALUE      (OVERALL, A**2) : 55.05
REMARK   3   OVERALL ANISOTROPIC B VALUE.
REMARK   3    B11 (A**2) : -7.85290
REMARK   3    B22 (A**2) : -7.85290
REMARK   3    B33 (A**2) : 15.70590
REMARK   3    B12 (A**2) : 0.00000
REMARK   3    B13 (A**2) : 0.00000
REMARK   3    B23 (A**2) : 0.00000
REMARK   3
REMARK   3  ESTIMATED COORDINATE ERROR.
REMARK   3   ESD FROM LUZZATI PLOT                    (A) : 0.47
REMARK   3   DPI (BLOW EQ-10) BASED ON R VALUE        (A) : 0.122
REMARK   3   DPI (BLOW EQ-9) BASED ON FREE R VALUE    (A) : 0.118
REMARK   3   DPI (CRUICKSHANK) BASED ON R VALUE       (A) : 0.116
REMARK   3   DPI (CRUICKSHANK) BASED ON FREE R VALUE  (A) : 0.114
REMARK   3
REMARK   3   REFERENCES: BLOW, D. (2002) ACTA CRYST D58, 792-797
REMARK   3               CRUICKSHANK, D.W.J. (1999) ACTA CRYST D55, 583-601
REMARK   3
REMARK   3  CORRELATION COEFFICIENTS.
REMARK   3   CORRELATION COEFFICIENT FO-FC      : 0.942
REMARK   3   CORRELATION COEFFICIENT FO-FC FREE : 0.929
REMARK   3
REMARK   3  X-RAY WEIGHT : 6.67
REMARK   3
REMARK   3  GEOMETRY FUNCTION.                                                  
REMARK   3   RESTRAINT LIBRARIES.                                               
REMARK   3    NUMBER OF LIBRARIES USED :   9                                    
REMARK   3    LIBRARY  1 : protgeo_eh99.dat (V1.6.4.20) 20220523  STANDARD      
REMARK   3                 AMINO ACID DICTIONARY. BONDS AND ANGLES FROM         
REMARK   3                 ENGH AND HUBER EH99. OTHER VALUES BASED ON           
REMARK   3                 PREVIOUS TNT OR TAKEN FROM CCP4. INCLUDES            
REMARK   3                 HYDROGEN ATOMS.                                      
REMARK   3    LIBRARY  2 : exoticaa.dat (V1.3.4.16) 20220523  COLLECTION        
REMARK   3                 OF NON-STANDARD AMINO ACIDS, MAINLY EH91             
REMARK   3                 WITHOUT IDEAL DISTANCE INFO                          
REMARK   3    LIBRARY  3 : nuclgeo.dat (V1.13.4.9) 20221011                     
REMARK   3    LIBRARY  4 : bcorrel.dat (V1.15.10.2) 20190616                    
REMARK   3    LIBRARY  5 : contact.dat (V1.15.12.10) 20191121                   
REMARK   3    LIBRARY  6 : idealdist_contact.dat (V1.3.4.14) 20230724           
REMARK   3                 IDEAL-DISTANCE CONTACT TERM DATA AS USED IN          
REMARK   3                 PROLSQ. VALUES USED HERE ARE BASEd ON DATA           
REMARK   3                 HARVESTING OF PDB AS OF 20190109                     
REMARK   3    LIBRARY  7 : restraints for LIG (unknown) from cif                
REMARK   3                 dictionary Z1165350851.cif; generated by GRADE       
REMARK   3                 1.2.21 (Feb 03 2022) from SMILES                     
REMARK   3                 Cc1[nH][nH]c(=O)c1CCO using MOGUL                    
REMARK   3                 1.8.5(274361), CSD as541be, with quantum             
REMARK   3                 mechanics RM1                                        
REMARK   3    LIBRARY  8 : restraints for DMS (DIMETHYL SULFOXIDE) from         
REMARK   3                 cif dictionary DMS.cif; generated by grade2          
REMARK   3                 version 1.1.0a7 from                                 
REMARK   3                 PDB_chemical_components_definition_file              
REMARK   3                 ftp://ftp.ebi.ac.uk/pub/databases/msd/pdbechem_v     
REMARK   3                 2/D/DMS/DMS.cif using RDKit 2021.03.4                
REMARK   3                 ((DatabaseID PDB-DMS))                               
REMARK   3    LIBRARY  9 : assume.dat (V1.9.4.3) 20221011                       
REMARK   3                                                                      
REMARK   3   NUMBER OF GEOMETRIC FUNCTION TERMS DEFINED : 15                    
REMARK   3   TERM                          COUNT    WEIGHT   FUNCTION.          
REMARK   3    BOND LENGTHS              :   1595 ;   2.00 ;  HARMONIC           
REMARK   3    BOND ANGLES               :   2174 ;   2.00 ;  HARMONIC           
REMARK   3    TORSION ANGLES            :    537 ;   2.00 ;  SINUSOIDAL         
REMARK   3    TRIGONAL CARBON PLANES    :   NULL ;   NULL ;  NULL               
REMARK   3    GENERAL PLANES            :    280 ;   5.00 ;  HARMONIC           
REMARK   3    ISOTROPIC THERMAL FACTORS :   1595 ;  10.00 ;  HARMONIC           
REMARK   3    BAD NON-BONDED CONTACTS   :   NULL ;   NULL ;  NULL               
REMARK   3    IMPROPER TORSIONS         :   NULL ;   NULL ;  NULL               
REMARK   3    PSEUDOROTATION ANGLES     :   NULL ;   NULL ;  NULL               
REMARK   3    CHIRAL IMPROPER TORSION   :    197 ;   5.00 ;  SEMIHARMONIC       
REMARK   3    SUM OF OCCUPANCIES        :   NULL ;   NULL ;  NULL               
REMARK   3    UTILITY DISTANCES         :   NULL ;   NULL ;  NULL               
REMARK   3    UTILITY ANGLES            :   NULL ;   NULL ;  NULL               
REMARK   3    UTILITY TORSION           :   NULL ;   NULL ;  NULL               
REMARK   3    IDEAL-DIST CONTACT TERM   :   1203 ;   4.00 ;  SEMIHARMONIC       
REMARK   3                                                                      
REMARK   3   RMS DEVIATIONS FROM IDEAL VALUES.                                  
REMARK   3   BOND LENGTHS                       (A) : 0.010                     
REMARK   3   BOND ANGLES                  (DEGREES) : 1.00                      
REMARK   3   PEPTIDE OMEGA TORSION ANGLES (DEGREES) : 3.80                      
REMARK   3   OTHER TORSION ANGLES         (DEGREES) : 15.44                     
REMARK   3                                                                      
REMARK   3   SIMILARITY.                                                        
REMARK   3    NCS.                                                              
REMARK   3     NCS METHOD: NONE                                                 
REMARK   3    TARGET RESTRAINTS.                                                
REMARK   3     TARGET REPRESENTATION : NONE                                     
REMARK   3     TARGET STRUCTURE : NULL                                          
REMARK   3                                                                      
REMARK   3  TLS DETAILS.                                                        
REMARK   3   NUMBER OF TLS GROUPS  :            2                               
REMARK   3                                                                      
REMARK   3   TLS GROUP :            1                                           
REMARK   3    SET : { A|* }                                                     
REMARK   3    ORIGIN FOR THE GROUP (A):  -14.0952   -1.1991  -19.5889           
REMARK   3    T TENSOR                                                          
REMARK   3     T11:    0.0143 T22:   -0.0036                                    
REMARK   3     T33:   -0.2216 T12:    0.1083                                    
REMARK   3     T13:    0.0921 T23:    0.0805                                    
REMARK   3    L TENSOR                                                          
REMARK   3     L11:    2.8332 L22:    3.6863                                    
REMARK   3     L33:    3.8572 L12:   -1.8540                                    
REMARK   3     L13:    1.0948 L23:    0.8388                                    
REMARK   3    S TENSOR                                                          
REMARK   3     S11:    0.3717 S12:    0.3888 S13:    0.1750                     
REMARK   3     S21:   -0.4723 S22:   -0.2818 S23:   -0.2338                     
REMARK   3     S31:   -0.1312 S32:    0.5535 S33:   -0.0899                     
REMARK   3                                                                      
REMARK   3   TLS GROUP :            2                                           
REMARK   3    SET : { B|* }                                                     
REMARK   3    ORIGIN FOR THE GROUP (A):  -18.7935    1.4573  -15.4870           
REMARK   3    T TENSOR                                                          
REMARK   3     T11:    0.1144 T22:    0.0132                                    
REMARK   3     T33:   -0.0743 T12:    0.1279                                    
REMARK   3     T13:    0.0183 T23:    0.0214                                    
REMARK   3    L TENSOR                                                          
REMARK   3     L11:    1.0541 L22:    0.9451                                    
REMARK   3     L33:    2.1873 L12:   -0.7585                                    
REMARK   3     L13:    0.6845 L23:    0.1761                                    
REMARK   3    S TENSOR                                                          
REMARK   3     S11:    0.2363 S12:    0.1415 S13:    0.0641                     
REMARK   3     S21:   -0.1617 S22:   -0.2402 S23:    0.0628                     
REMARK   3     S31:   -0.0414 S32:    0.1643 S33:    0.0040                     
REMARK   3                                                                      
REMARK   3  REFINEMENT NOTES.                                                   
REMARK   3   NUMBER OF REFINEMENT NOTES :   1                                   
REMARK   3   NOTE   1 : IDEAL-DIST CONTACT TERM CONTACT SETUP. ALL ATOMS        
REMARK   3               HAVE CCP4 ATOM TYPE FROM LIBRARY                       
REMARK   3
REMARK   3  OTHER REFINEMENT REMARKS: NULL
REMARK   3
REMARK 290                                                            
REMARK 290 CRYSTALLOGRAPHIC SYMMETRY                                  
REMARK 290 SYMMETRY OPERATORS FOR SPACE GROUP: P 43 2 2               
REMARK 290                                                            
REMARK 290      SYMOP   SYMMETRY                                      
REMARK 290     NNNMMM   OPERATOR                                      
REMARK 290       1555   X,Y,Z                                         
REMARK 290       2555   -X,-Y,1/2+Z                                   
REMARK 290       3555   -Y,X,3/4+Z                                    
REMARK 290       4555   Y,-X,1/4+Z                                    
REMARK 290       5555   -X,Y,-Z                                       
REMARK 290       6555   X,-Y,1/2-Z                                    
REMARK 290       7555   Y,X,1/4-Z                                     
REMARK 290       8555   -Y,-X,3/4-Z                                   
REMARK 290                                                            
REMARK 290     WHERE NNN -> OPERATOR NUMBER                           
REMARK 290           MMM -> TRANSLATION VECTOR                        
REMARK 290                                                            
REMARK 290 CRYSTALLOGRAPHIC SYMMETRY TRANSFORMATIONS                  
REMARK 290 THE FOLLOWING TRANSFORMATIONS OPERATE ON THE ATOM/HETATM   
REMARK 290 RECORDS IN THIS ENTRY TO PRODUCE CRYSTALLOGRAPHICALLY      
REMARK 290 RELATED MOLECULES.                                         
REMARK 290   SMTRY1   1  1.000000  0.000000  0.000000        0.00000
REMARK 290   SMTRY2   1  0.000000  1.000000  0.000000        0.00000
REMARK 290   SMTRY3   1  0.000000  0.000000  1.000000        0.00000
REMARK 290   SMTRY1   2 -1.000000  0.000000  0.000000        0.00000
REMARK 290   SMTRY2   2  0.000000 -1.000000  0.000000        0.00000
REMARK 290   SMTRY3   2  0.000000  0.000000  1.000000      108.73500
REMARK 290   SMTRY1   3  0.000000 -1.000000  0.000000        0.00000
REMARK 290   SMTRY2   3  1.000000  0.000000  0.000000        0.00000
REMARK 290   SMTRY3   3  0.000000  0.000000  1.000000      163.10250
REMARK 290   SMTRY1   4  0.000000  1.000000  0.000000        0.00000
REMARK 290   SMTRY2   4 -1.000000  0.000000  0.000000        0.00000
REMARK 290   SMTRY3   4  0.000000  0.000000  1.000000       54.36750
REMARK 290   SMTRY1   5 -1.000000  0.000000  0.000000        0.00000
REMARK 290   SMTRY2   5  0.000000  1.000000  0.000000        0.00000
REMARK 290   SMTRY3   5  0.000000  0.000000 -1.000000        0.00000
REMARK 290   SMTRY1   6  1.000000  0.000000  0.000000        0.00000
REMARK 290   SMTRY2   6  0.000000 -1.000000  0.000000        0.00000
REMARK 290   SMTRY3   6  0.000000  0.000000 -1.000000      108.73500
REMARK 290   SMTRY1   7  0.000000  1.000000  0.000000        0.00000
REMARK 290   SMTRY2   7  1.000000  0.000000  0.000000        0.00000
REMARK 290   SMTRY3   7  0.000000  0.000000 -1.000000       54.36750
REMARK 290   SMTRY1   8  0.000000 -1.000000  0.000000        0.00000
REMARK 290   SMTRY2   8 -1.000000  0.000000  0.000000        0.00000
REMARK 290   SMTRY3   8  0.000000  0.000000 -1.000000      163.10250
REMARK 290                                                            
REMARK 290 REMARK: NULL                                               
CRYST1   42.710   42.710  217.470  90.00  90.00  90.00 P 43 2 2                 


$$$$
Zx0693a_ligand
  PyMOL3.0          3D                             0

 10 10  0  0  0  0  0  0  0  0999 V2000
   -9.0040    4.6120  -17.3050 C   0  0  0  0  0  0  0  0  0  0  0  0
   -9.4370    4.2290  -16.0820 N   0  0  0  0  0  0  0  0  0  0  0  0
   -9.5800    4.3410  -18.3620 O   0  0  0  0  0  0  0  0  0  0  0  0
   -7.7510    5.3350  -17.0970 C   0  0  0  0  0  0  0  0  0  0  0  0
   -8.5170    4.6650  -15.1330 N   0  0  0  0  0  0  0  0  0  0  0  0
   -6.9190    5.0790  -20.4580 O   0  0  0  0  0  0  0  0  0  0  0  0
   -7.5050    5.3190  -15.7280 C   0  0  0  0  0  0  0  0  0  0  0  0
   -6.3590    5.8590  -14.9360 C   0  0  0  0  0  0  0  0  0  0  0  0
   -6.9990    5.9650  -18.2340 C   0  0  0  0  0  0  0  0  0  0  0  0
   -6.3830    4.9570  -19.1520 C   0  0  0  0  0  0  0  0  0  0  0  0
  1  2  4  0  0  0  0
  1  4  4  0  0  0  0
  2  5  4  0  0  0  0
  1  3  2  0  0  0  0
  4  7  4  0  0  0  0
  4  9  1  0  0  0  0
  5  7  4  0  0  0  0
  7  8  1  0  0  0  0
  9 10  1  0  0  0  0
  6 10  1  0  0  0  0
M  END
>  <pdb_header>
COMPND    XX01ZVNS2B-x0693_B_301_XX01ZVNS2B-x1291+B+301+1


$$$$
Zx0701a
  PyMOL3.0          3D                             0

 11 12  0  0  0  0  0  0  0  0999 V2000
   -3.9040    5.2260  -16.0910 N   0  0  0  0  0  0  0  0  0  0  0  0
   -4.7770    5.1620  -16.8330 C   0  0  0  0  0  0  0  0  0  0  0  0
   -5.9130    5.0500  -17.7290 C   0  0  0  0  0  0  0  0  0  0  0  0
   -5.7390    5.1280  -19.0530 N   0  0  0  0  0  0  0  0  0  0  0  0
   -7.9200    4.6670  -18.6600 C   0  0  0  0  0  0  0  0  0  0  0  0
   -6.9690    4.8860  -19.6070 N   0  0  0  0  0  0  0  0  0  0  0  0
   -9.2660    4.3430  -18.7580 C   0  0  0  0  0  0  0  0  0  0  0  0
   -9.9720    4.1150  -17.5910 C   0  0  0  0  0  0  0  0  0  0  0  0
   -9.3510    4.2190  -16.3550 C   0  0  0  0  0  0  0  0  0  0  0  0
   -8.0100    4.5550  -16.2580 C   0  0  0  0  0  0  0  0  0  0  0  0
   -7.2740    4.7740  -17.4170 C   0  0  0  0  0  0  0  0  0  0  0  0
  1  2  3  0  0  0  0
  2  3  1  0  0  0  0
  3  4  4  0  0  0  0
  3 11  4  0  0  0  0
  5  6  4  0  0  0  0
  5  7  4  0  0  0  0
  4  6  4  0  0  0  0
  7  8  4  0  0  0  0
  8  9  4  0  0  0  0
  9 10  4  0  0  0  0
  5 11  4  0  0  0  0
 10 11  4  0  0  0  0
M  END
>  <pdb_header>
HEADER    ----                                    18-MAY-23                     
TITLE     ---                                                                   
EXPDTA    X-RAY DIFFRACTION                                                     
REMARK --------------------- added by autoBUSTER ---------------------------------START
REMARK run at   = Wed Aug  9 10:34:38 BST 2023
REMARK     in   = /dls/labxchem/data/lb32627/lb32627-65/processing/analysis/model_building/XX01ZVNS2B-x0701
REMARK     user = kyf22269
REMARK     cmd  = \
REMARK            /dls_sw/apps/GPhL/BUSTER/20230614/autoBUSTER/bin/linux64/refine \
REMARK            -p \
REMARK            /dls/labxchem/data/lb32627/lb32627-65/processing/analysis/model_building/XX01ZVNS2B-x0701/cootOut/Refi
REMARK            -m \
REMARK            /dls/labxchem/data/lb32627/lb32627-65/processing/analysis/model_building/XX01ZVNS2B-x0701/XX01ZVNS2B-x
REMARK            -l \
REMARK            /dls/labxchem/data/lb32627/lb32627-65/processing/analysis/model_building/XX01ZVNS2B-x0701/Z1198158918.
REMARK            -autoncs -M TLSbasic -d Refine_8
REMARK Files used:
REMARK   PDB              = Refine_8/pdbchk.pdb
REMARK   MTZ              = /dls/labxchem/data/lb32627/lb32627-65/processing/analysis/model_building/XX01ZVNS2B-x0701/XX
REMARK output written to subdirectory = Refine_8
REMARK best refinement for F,SIGF with R/Rfree 0.2261/0.2645
REMARK header records are copied from input PDB file (apart from REMARK 3!)
REMARK --------------------- added by autoBUSTER -----------------------------------END
REMARK --------------------- added by autoBUSTER -------------------------------
REMARK run at   = Fri Aug  4 11:29:21 BST 2023                                  
REMARK     in   = /dls/labxchem/data/lb32627/lb32627-65/processing/analysis/mode
REMARK     user = kyf22269                                                      
REMARK     cmd  = \                                                             
REMARK            /dls_sw/apps/GPhL/BUSTER/20230614/autoBUSTER/bin/linux64/refin
REMARK            -p \                                                          
REMARK            /dls/labxchem/data/lb32627/lb32627-65/processing/analysis/mode
REMARK            -m \                                                          
REMARK            /dls/labxchem/data/lb32627/lb32627-65/processing/analysis/mode
REMARK            -l \                                                          
REMARK            /dls/labxchem/data/lb32627/lb32627-65/processing/analysis/mode
REMARK            -autoncs -M TLSbasic -d Refine_7                              
REMARK Files used:                                                              
REMARK   PDB              = Refine_7/pdbchk.pdb                                 
REMARK   MTZ              = /dls/labxchem/data/lb32627/lb32627-65/processing/ana
REMARK output written to subdirectory = Refine_7                                
REMARK best refinement for F,SIGF with R/Rfree 0.2256/0.2611                    
REMARK header records are copied from input PDB file (apart from REMARK 3!)     
REMARK --------------------- added by autoBUSTER -------------------------------
REMARK --------------------- added by autoBUSTER -------------------------------
REMARK run at   = Tue Aug  1 14:17:58 BST 2023                                  
REMARK     in   = /dls/labxchem/data/lb32627/lb32627-65/processing/analysis/mode
REMARK     user = kyf22269                                                      
REMARK     cmd  = \                                                             
REMARK            /dls_sw/apps/GPhL/BUSTER/20230614/autoBUSTER/bin/linux64/refin
REMARK            -p \                                                          
REMARK            /dls/labxchem/data/lb32627/lb32627-65/processing/analysis/mode
REMARK            -m \                                                          
REMARK            /dls/labxchem/data/lb32627/lb32627-65/processing/analysis/mode
REMARK            -l \                                                          
REMARK            /dls/labxchem/data/lb32627/lb32627-65/processing/analysis/mode
REMARK            -autoncs -M TLSbasic -d Refine_6                              
REMARK Files used:                                                              
REMARK   PDB              = Refine_6/pdbchk.pdb                                 
REMARK   MTZ              = /dls/labxchem/data/lb32627/lb32627-65/processing/ana
REMARK output written to subdirectory = Refine_6                                
REMARK best refinement for F,SIGF with R/Rfree 0.2257/0.2613                    
REMARK header records are copied from input PDB file (apart from REMARK 3!)     
REMARK --------------------- added by autoBUSTER -------------------------------
REMARK --------------------- added by autoBUSTER -------------------------------
REMARK run at   = Mon Jul 17 13:40:44 BST 2023                                  
REMARK     in   = /dls/labxchem/data/lb32627/lb32627-65/processing/analysis/mode
REMARK     user = kyf22269                                                      
REMARK     cmd  = \                                                             
REMARK            /dls_sw/apps/GPhL/BUSTER/20230614/autoBUSTER/bin/linux64/refin
REMARK            -p \                                                          
REMARK            /dls/labxchem/data/lb32627/lb32627-65/processing/analysis/mode
REMARK            -m \                                                          
REMARK            /dls/labxchem/data/lb32627/lb32627-65/processing/analysis/mode
REMARK            -l \                                                          
REMARK            /dls/labxchem/data/lb32627/lb32627-65/processing/analysis/mode
REMARK            -autoncs -M TLSbasic -d Refine_5                              
REMARK Files used:                                                              
REMARK   PDB              = Refine_5/pdbchk.pdb                                 
REMARK   MTZ              = /dls/labxchem/data/lb32627/lb32627-65/processing/ana
REMARK output written to subdirectory = Refine_5                                
REMARK best refinement for F,SIGF with R/Rfree 0.2262/0.2609                    
REMARK header records are copied from input PDB file (apart from REMARK 3!)     
REMARK --------------------- added by autoBUSTER -------------------------------
REMARK --------------------- added by autoBUSTER -------------------------------
REMARK run at   = Tue May 30 13:09:48 BST 2023                                  
REMARK     in   = /dls/labxchem/data/lb32627/lb32627-65/processing/analysis/mode
REMARK     user = xau79897                                                      
REMARK     cmd  = \                                                             
REMARK            /dls_sw/apps/GPhL/BUSTER/20230217/autoBUSTER/bin/linux64/refin
REMARK            -p \                                                          
REMARK            /dls/labxchem/data/lb32627/lb32627-65/processing/analysis/mode
REMARK            -m \                                                          
REMARK            /dls/labxchem/data/lb32627/lb32627-65/processing/analysis/mode
REMARK            -l \                                                          
REMARK            /dls/labxchem/data/lb32627/lb32627-65/processing/analysis/mode
REMARK            -autoncs -M TLSbasic -WAT -B user -Gelly gelly.dat \          
REMARK            StopOnGellySanityCheckError=no -d Refine_4                    
REMARK Files used:                                                              
REMARK   PDB              = Refine_4/pdbchk.pdb                                 
REMARK   MTZ              = /dls/labxchem/data/lb32627/lb32627-65/processing/ana
REMARK   Gelly commands       = /dls/labxchem/data/lb32627/lb32627-65/processing
REMARK output written to subdirectory = Refine_4                                
REMARK best refinement for F,SIGF with R/Rfree 0.2280/0.2639                    
REMARK header records are copied from input PDB file (apart from REMARK 3!)     
REMARK --------------------- added by autoBUSTER -------------------------------
REMARK --------------------- added by autoBUSTER -------------------------------
REMARK run at   = Tue May 23 17:10:00 BST 2023                                  
REMARK     in   = /dls/labxchem/data/lb32627/lb32627-65/processing/analysis/mode
REMARK     user = xau79897                                                      
REMARK     cmd  = \                                                             
REMARK            /dls_sw/apps/GPhL/BUSTER/20230217/autoBUSTER/bin/linux64/refin
REMARK            -p \                                                          
REMARK            /dls/labxchem/data/lb32627/lb32627-65/processing/analysis/mode
REMARK            -m \                                                          
REMARK            /dls/labxchem/data/lb32627/lb32627-65/processing/analysis/mode
REMARK            -l \                                                          
REMARK            /dls/labxchem/data/lb32627/lb32627-65/processing/analysis/mode
REMARK            -autoncs -M TLSbasic -d Refine_3                              
REMARK Files used:                                                              
REMARK   PDB              = Refine_3/pdbchk.pdb                                 
REMARK   MTZ              = /dls/labxchem/data/lb32627/lb32627-65/processing/ana
REMARK output written to subdirectory = Refine_3                                
REMARK best refinement for F,SIGF with R/Rfree 0.2341/0.2607                    
REMARK header records are copied from input PDB file (apart from REMARK 3!)     
REMARK --------------------- added by autoBUSTER -------------------------------
REMARK   2                                                            
REMARK   2 RESOLUTION.    1.56 ANGSTROMS.
REMARK   3
REMARK   3 REFINEMENT.
REMARK   3   PROGRAM     : BUSTER 2.10.4 (14-JUN-2023)
REMARK   3   AUTHORS     : BRICOGNE,BLANC,BRANDL,FLENSBURG,KELLER,
REMARK   3               : PACIOREK,ROVERSI,SHARFF,SMART,VONRHEIN,WOMACK;
REMARK   3               : MATTHEWS,TEN EYCK,TRONRUD
REMARK   3
REMARK   3  DATA USED IN REFINEMENT.
REMARK   3   RESOLUTION RANGE HIGH (ANGSTROMS) : 1.564
REMARK   3   RESOLUTION RANGE LOW  (ANGSTROMS) : 23.11
REMARK   3   DATA CUTOFF            (SIGMA(F)) : 0.000
REMARK   3   COMPLETENESS FOR RANGE        (%) : 77.3
REMARK   3   NUMBER OF REFLECTIONS             : 22770
REMARK   3
REMARK   3  FIT TO DATA USED IN REFINEMENT.
REMARK   3   CROSS-VALIDATION METHOD          : THROUGHOUT
REMARK   3   FREE R VALUE TEST SET SELECTION  : RANDOM
REMARK   3   R VALUE     (WORKING + TEST SET) : 0.2281
REMARK   3   R VALUE            (WORKING SET) : 0.2261
REMARK   3   FREE R VALUE                     : 0.2645
REMARK   3   FREE R VALUE TEST SET SIZE   (%) : 5.100
REMARK   3   FREE R VALUE TEST SET COUNT      : 1162
REMARK   3   ESTIMATED ERROR OF FREE R VALUE  : NULL
REMARK   3
REMARK   3  FIT IN THE HIGHEST RESOLUTION BIN.
REMARK   3   TOTAL NUMBER OF BINS USED           : 51
REMARK   3   BIN RESOLUTION RANGE HIGH       (A) : 1.56
REMARK   3   BIN RESOLUTION RANGE LOW        (A) : 1.70
REMARK   3   BIN COMPLETENESS (WORKING+TEST) (%) : 7.03
REMARK   3   REFLECTIONS IN BIN   (WORKING+TEST) : 456
REMARK   3   BIN R VALUE          (WORKING+TEST) : 0.5825
REMARK   3   REFLECTIONS IN BIN    (WORKING SET) : 426
REMARK   3   BIN R VALUE           (WORKING SET) : 0.5922
REMARK   3   BIN FREE R VALUE                    : 0.4456
REMARK   3   BIN FREE R VALUE TEST SET SIZE  (%) : 6.58
REMARK   3   BIN FREE R VALUE TEST SET COUNT     : 30
REMARK   3   ESTIMATED ERROR OF BIN FREE R VALUE : NULL
REMARK   3
REMARK   3  NUMBER OF NON-HYDROGEN ATOMS USED IN REFINEMENT.
REMARK   3   PROTEIN ATOMS            : 1476
REMARK   3   NUCLEIC ACID ATOMS       : 0
REMARK   3   HETEROGEN ATOMS          : 27
REMARK   3   SOLVENT ATOMS            : 121
REMARK   3
REMARK   3  B VALUES.
REMARK   3   FROM WILSON PLOT           (A**2) : 31.72
REMARK   3   MEAN B VALUE      (OVERALL, A**2) : 52.32
REMARK   3   OVERALL ANISOTROPIC B VALUE.
REMARK   3    B11 (A**2) : -8.32570
REMARK   3    B22 (A**2) : -8.32570
REMARK   3    B33 (A**2) : 16.65140
REMARK   3    B12 (A**2) : 0.00000
REMARK   3    B13 (A**2) : 0.00000
REMARK   3    B23 (A**2) : 0.00000
REMARK   3
REMARK   3  ESTIMATED COORDINATE ERROR.
REMARK   3   ESD FROM LUZZATI PLOT                    (A) : 0.34
REMARK   3   DPI (BLOW EQ-10) BASED ON R VALUE        (A) : 0.138
REMARK   3   DPI (BLOW EQ-9) BASED ON FREE R VALUE    (A) : 0.130
REMARK   3   DPI (CRUICKSHANK) BASED ON R VALUE       (A) : 0.128
REMARK   3   DPI (CRUICKSHANK) BASED ON FREE R VALUE  (A) : 0.125
REMARK   3
REMARK   3   REFERENCES: BLOW, D. (2002) ACTA CRYST D58, 792-797
REMARK   3               CRUICKSHANK, D.W.J. (1999) ACTA CRYST D55, 583-601
REMARK   3
REMARK   3  CORRELATION COEFFICIENTS.
REMARK   3   CORRELATION COEFFICIENT FO-FC      : 0.939
REMARK   3   CORRELATION COEFFICIENT FO-FC FREE : 0.924
REMARK   3
REMARK   3  X-RAY WEIGHT : 6.86
REMARK   3
REMARK   3  GEOMETRY FUNCTION.                                                  
REMARK   3   RESTRAINT LIBRARIES.                                               
REMARK   3    NUMBER OF LIBRARIES USED :   9                                    
REMARK   3    LIBRARY  1 : protgeo_eh99.dat (V1.6.4.20) 20220523  STANDARD      
REMARK   3                 AMINO ACID DICTIONARY. BONDS AND ANGLES FROM         
REMARK   3                 ENGH AND HUBER EH99. OTHER VALUES BASED ON           
REMARK   3                 PREVIOUS TNT OR TAKEN FROM CCP4. INCLUDES            
REMARK   3                 HYDROGEN ATOMS.                                      
REMARK   3    LIBRARY  2 : exoticaa.dat (V1.3.4.16) 20220523  COLLECTION        
REMARK   3                 OF NON-STANDARD AMINO ACIDS, MAINLY EH91             
REMARK   3                 WITHOUT IDEAL DISTANCE INFO                          
REMARK   3    LIBRARY  3 : nuclgeo.dat (V1.13.4.9) 20221011                     
REMARK   3    LIBRARY  4 : bcorrel.dat (V1.15.10.2) 20190616                    
REMARK   3    LIBRARY  5 : contact.dat (V1.15.12.10) 20191121                   
REMARK   3    LIBRARY  6 : idealdist_contact.dat (V1.3.4.13) 20220125           
REMARK   3                 IDEAL-DISTANCE CONTACT TERM DATA AS USED IN          
REMARK   3                 PROLSQ. VALUES USED HERE ARE BASED ON DATA           
REMARK   3                 HARVESTING OF PDB AS OF 20190109.                    
REMARK   3    LIBRARY  7 : restraints for LIG (unknown) from cif                
REMARK   3                 dictionary Z1198158918.cif; generated by GRADE       
REMARK   3                 1.2.21 (Feb 03 2022) from SMILES N                   
REMARK   3    LIBRARY  8 : restraints for DMS (DIMETHYL SULFOXIDE) from         
REMARK   3                 cif dictionary DMS.cif; generated by grade2          
REMARK   3                 version 1.1.0a7 from                                 
REMARK   3                 PDB_chemical_components_definition_file              
REMARK   3                 ftp://ftp.ebi.ac.uk/pub/databases/msd/pdbechem_v     
REMARK   3                 2/D/DMS/DMS.cif using RDKit 2021.03.4                
REMARK   3                 ((DatabaseID PDB-DMS))                               
REMARK   3    LIBRARY  9 : assume.dat (V1.9.4.3) 20221011                       
REMARK   3                                                                      
REMARK   3   NUMBER OF GEOMETRIC FUNCTION TERMS DEFINED : 15                    
REMARK   3   TERM                          COUNT    WEIGHT   FUNCTION.          
REMARK   3    BOND LENGTHS              :   1675 ;   2.00 ;  HARMONIC           
REMARK   3    BOND ANGLES               :   2297 ;   2.00 ;  HARMONIC           
REMARK   3    TORSION ANGLES            :    563 ;   2.00 ;  SINUSOIDAL         
REMARK   3    TRIGONAL CARBON PLANES    :   NULL ;   NULL ;  NULL               
REMARK   3    GENERAL PLANES            :    305 ;   5.00 ;  HARMONIC           
REMARK   3    ISOTROPIC THERMAL FACTORS :   1675 ;  10.00 ;  HARMONIC           
REMARK   3    BAD NON-BONDED CONTACTS   :   NULL ;   NULL ;  NULL               
REMARK   3    IMPROPER TORSIONS         :   NULL ;   NULL ;  NULL               
REMARK   3    PSEUDOROTATION ANGLES     :   NULL ;   NULL ;  NULL               
REMARK   3    CHIRAL IMPROPER TORSION   :    210 ;   5.00 ;  SEMIHARMONIC       
REMARK   3    SUM OF OCCUPANCIES        :   NULL ;   NULL ;  NULL               
REMARK   3    UTILITY DISTANCES         :   NULL ;   NULL ;  NULL               
REMARK   3    UTILITY ANGLES            :   NULL ;   NULL ;  NULL               
REMARK   3    UTILITY TORSION           :   NULL ;   NULL ;  NULL               
REMARK   3    IDEAL-DIST CONTACT TERM   :   1427 ;   4.00 ;  SEMIHARMONIC       
REMARK   3                                                                      
REMARK   3   RMS DEVIATIONS FROM IDEAL VALUES.                                  
REMARK   3   BOND LENGTHS                       (A) : 0.010                     
REMARK   3   BOND ANGLES                  (DEGREES) : 1.03                      
REMARK   3   PEPTIDE OMEGA TORSION ANGLES (DEGREES) : 3.65                      
REMARK   3   OTHER TORSION ANGLES         (DEGREES) : 16.39                     
REMARK   3                                                                      
REMARK   3   SIMILARITY.                                                        
REMARK   3    NCS.                                                              
REMARK   3     NCS METHOD: NONE                                                 
REMARK   3    TARGET RESTRAINTS.                                                
REMARK   3     TARGET REPRESENTATION : NONE                                     
REMARK   3     TARGET STRUCTURE : NULL                                          
REMARK   3                                                                      
REMARK   3  TLS DETAILS.                                                        
REMARK   3   NUMBER OF TLS GROUPS  :            2                               
REMARK   3                                                                      
REMARK   3   TLS GROUP :            1                                           
REMARK   3    SET : { A|* }                                                     
REMARK   3    ORIGIN FOR THE GROUP (A):  -14.4678   -1.4348  -19.8688           
REMARK   3    T TENSOR                                                          
REMARK   3     T11:   -0.0810 T22:   -0.0991                                    
REMARK   3     T33:   -0.1557 T12:    0.1466                                    
REMARK   3     T13:    0.0840 T23:    0.0697                                    
REMARK   3    L TENSOR                                                          
REMARK   3     L11:    2.9167 L22:    3.5472                                    
REMARK   3     L33:    3.6885 L12:   -1.6273                                    
REMARK   3     L13:    0.3074 L23:    0.8950                                    
REMARK   3    S TENSOR                                                          
REMARK   3     S11:    0.4924 S12:    0.3923 S13:    0.2149                     
REMARK   3     S21:   -0.5113 S22:   -0.3815 S23:   -0.2001                     
REMARK   3     S31:   -0.0881 S32:    0.4811 S33:   -0.1109                     
REMARK   3                                                                      
REMARK   3   TLS GROUP :            2                                           
REMARK   3    SET : { B|* }                                                     
REMARK   3    ORIGIN FOR THE GROUP (A):  -18.3556    1.2639  -15.6466           
REMARK   3    T TENSOR                                                          
REMARK   3     T11:    0.0266 T22:   -0.0535                                    
REMARK   3     T33:    0.0153 T12:    0.1229                                    
REMARK   3     T13:    0.0322 T23:    0.0207                                    
REMARK   3    L TENSOR                                                          
REMARK   3     L11:    1.3831 L22:    1.6933                                    
REMARK   3     L33:    2.4543 L12:   -1.3553                                    
REMARK   3     L13:    0.3507 L23:   -0.0601                                    
REMARK   3    S TENSOR                                                          
REMARK   3     S11:    0.3159 S12:    0.0944 S13:    0.1569                     
REMARK   3     S21:   -0.1009 S22:   -0.2730 S23:   -0.0530                     
REMARK   3     S31:   -0.0030 S32:    0.2683 S33:   -0.0429                     
REMARK   3                                                                      
REMARK   3  REFINEMENT NOTES.                                                   
REMARK   3   NUMBER OF REFINEMENT NOTES :   1                                   
REMARK   3   NOTE   1 : IDEAL-DIST CONTACT TERM CONTACT SETUP. ALL ATOMS        
REMARK   3               HAVE CCP4 ATOM TYPE FROM LIBRARY                       
REMARK   3
REMARK   3  OTHER REFINEMENT REMARKS: NULL
REMARK   3
REMARK 290                                                            
REMARK 290 CRYSTALLOGRAPHIC SYMMETRY                                  
REMARK 290 SYMMETRY OPERATORS FOR SPACE GROUP: P 43 2 2               
REMARK 290                                                            
REMARK 290      SYMOP   SYMMETRY                                      
REMARK 290     NNNMMM   OPERATOR                                      
REMARK 290       1555   X,Y,Z                                         
REMARK 290       2555   -X,-Y,1/2+Z                                   
REMARK 290       3555   -Y,X,3/4+Z                                    
REMARK 290       4555   Y,-X,1/4+Z                                    
REMARK 290       5555   -X,Y,-Z                                       
REMARK 290       6555   X,-Y,1/2-Z                                    
REMARK 290       7555   Y,X,1/4-Z                                     
REMARK 290       8555   -Y,-X,3/4-Z                                   
REMARK 290                                                            
REMARK 290     WHERE NNN -> OPERATOR NUMBER                           
REMARK 290           MMM -> TRANSLATION VECTOR                        
REMARK 290                                                            
REMARK 290 CRYSTALLOGRAPHIC SYMMETRY TRANSFORMATIONS                  
REMARK 290 THE FOLLOWING TRANSFORMATIONS OPERATE ON THE ATOM/HETATM   
REMARK 290 RECORDS IN THIS ENTRY TO PRODUCE CRYSTALLOGRAPHICALLY      
REMARK 290 RELATED MOLECULES.                                         
REMARK 290   SMTRY1   1  1.000000  0.000000  0.000000        0.00000
REMARK 290   SMTRY2   1  0.000000  1.000000  0.000000        0.00000
REMARK 290   SMTRY3   1  0.000000  0.000000  1.000000        0.00000
REMARK 290   SMTRY1   2 -1.000000  0.000000  0.000000        0.00000
REMARK 290   SMTRY2   2  0.000000 -1.000000  0.000000        0.00000
REMARK 290   SMTRY3   2  0.000000  0.000000  1.000000      108.25550
REMARK 290   SMTRY1   3  0.000000 -1.000000  0.000000        0.00000
REMARK 290   SMTRY2   3  1.000000  0.000000  0.000000        0.00000
REMARK 290   SMTRY3   3  0.000000  0.000000  1.000000      162.38325
REMARK 290   SMTRY1   4  0.000000  1.000000  0.000000        0.00000
REMARK 290   SMTRY2   4 -1.000000  0.000000  0.000000        0.00000
REMARK 290   SMTRY3   4  0.000000  0.000000  1.000000       54.12775
REMARK 290   SMTRY1   5 -1.000000  0.000000  0.000000        0.00000
REMARK 290   SMTRY2   5  0.000000  1.000000  0.000000        0.00000
REMARK 290   SMTRY3   5  0.000000  0.000000 -1.000000        0.00000
REMARK 290   SMTRY1   6  1.000000  0.000000  0.000000        0.00000
REMARK 290   SMTRY2   6  0.000000 -1.000000  0.000000        0.00000
REMARK 290   SMTRY3   6  0.000000  0.000000 -1.000000      108.25550
REMARK 290   SMTRY1   7  0.000000  1.000000  0.000000        0.00000
REMARK 290   SMTRY2   7  1.000000  0.000000  0.000000        0.00000
REMARK 290   SMTRY3   7  0.000000  0.000000 -1.000000       54.12775
REMARK 290   SMTRY1   8  0.000000 -1.000000  0.000000        0.00000
REMARK 290   SMTRY2   8 -1.000000  0.000000  0.000000        0.00000
REMARK 290   SMTRY3   8  0.000000  0.000000 -1.000000      162.38325
REMARK 290                                                            
REMARK 290 REMARK: NULL                                               
CRYST1   42.555   42.555  216.511  90.00  90.00  90.00 P 43 2 2                 


$$$$
Zx0701a_ligand
  PyMOL3.0          3D                             0

 11 12  0  0  0  0  0  0  0  0999 V2000
   -4.7770    5.1620  -16.8330 C   0  0  0  0  0  0  0  0  0  0  0  0
   -3.9040    5.2260  -16.0910 N   0  0  0  0  0  0  0  0  0  0  0  0
   -5.9130    5.0500  -17.7290 C   0  0  0  0  0  0  0  0  0  0  0  0
   -6.9690    4.8860  -19.6070 N   0  0  0  0  0  0  0  0  0  0  0  0
   -7.2740    4.7740  -17.4170 C   0  0  0  0  0  0  0  0  0  0  0  0
   -5.7390    5.1280  -19.0530 N   0  0  0  0  0  0  0  0  0  0  0  0
   -7.9200    4.6670  -18.6600 C   0  0  0  0  0  0  0  0  0  0  0  0
   -8.0100    4.5550  -16.2580 C   0  0  0  0  0  0  0  0  0  0  0  0
   -9.3510    4.2190  -16.3550 C   0  0  0  0  0  0  0  0  0  0  0  0
   -9.9720    4.1150  -17.5910 C   0  0  0  0  0  0  0  0  0  0  0  0
   -9.2660    4.3430  -18.7580 C   0  0  0  0  0  0  0  0  0  0  0  0
  1  3  1  0  0  0  0
  1  2  3  0  0  0  0
  3  5  4  0  0  0  0
  3  6  4  0  0  0  0
  4  6  4  0  0  0  0
  5  7  4  0  0  0  0
  5  8  4  0  0  0  0
  4  7  4  0  0  0  0
  7 11  4  0  0  0  0
  8  9  4  0  0  0  0
  9 10  4  0  0  0  0
 10 11  4  0  0  0  0
M  END
>  <pdb_header>
COMPND    XX01ZVNS2B-x0701_B_301_XX01ZVNS2B-x1291+B+301+1


$$$$
Zx0709a
  PyMOL3.0          3D                             0

 14 15  0  0  0  0  0  0  0  0999 V2000
   -7.4440    5.3220  -16.1070 N   0  0  0  0  0  0  0  0  0  0  0  0
  -10.1640    4.2080  -18.5340 C   0  0  0  0  0  0  0  0  0  0  0  0
   -5.4220    7.6950  -13.9160 O   0  0  0  0  0  0  0  0  0  0  0  0
   -8.8040    4.5750  -17.9960 C   0  0  0  0  0  0  0  0  0  0  0  0
   -5.0930    5.4880  -16.6270 N   0  0  0  0  0  0  0  0  0  0  0  0
   -5.3030    8.2050  -16.0830 O   0  0  0  0  0  0  0  0  0  0  0  0
   -8.6230    4.9820  -16.6690 C   0  0  0  0  0  0  0  0  0  0  0  0
   -4.2870    5.2470  -17.7100 N   0  0  0  0  0  0  0  0  0  0  0  0
   -6.3910    5.2400  -16.9230 C   0  0  0  0  0  0  0  0  0  0  0  0
   -4.5500    6.0380  -15.4020 C   0  0  0  0  0  0  0  0  0  0  0  0
   -5.1350    7.3900  -15.0600 C   0  0  0  0  0  0  0  0  0  0  0  0
   -5.0870    4.8710  -18.6850 C   0  0  0  0  0  0  0  0  0  0  0  0
   -6.4370    4.8460  -18.2610 C   0  0  0  0  0  0  0  0  0  0  0  0
   -7.6730    4.5140  -18.7960 C   0  0  0  0  0  0  0  0  0  0  0  0
  1  7  4  0  0  0  0
  3 11  4  0  0  0  0
  2  4  1  0  0  0  0
  5  8  4  0  0  0  0
  5  9  4  0  0  0  0
  4  7  4  0  0  0  0
  8 12  4  0  0  0  0
  1  9  4  0  0  0  0
  5 10  1  0  0  0  0
  6 11  4  0  0  0  0
 10 11  1  0  0  0  0
 12 13  4  0  0  0  0
  9 13  4  0  0  0  0
 13 14  4  0  0  0  0
  4 14  4  0  0  0  0
M  END
>  <pdb_header>
HEADER    ----                                    18-MAY-23                     
TITLE     ---                                                                   
EXPDTA    X-RAY DIFFRACTION                                                     
REMARK --------------------- added by autoBUSTER ---------------------------------START
REMARK run at   = Thu Aug 10 10:29:16 BST 2023
REMARK     in   = /dls/labxchem/data/lb32627/lb32627-65/processing/analysis/model_building/XX01ZVNS2B-x0709
REMARK     user = kyf22269
REMARK     cmd  = \
REMARK            /dls_sw/apps/GPhL/BUSTER/20230614/autoBUSTER/bin/linux64/refine \
REMARK            -p \
REMARK            /dls/labxchem/data/lb32627/lb32627-65/processing/analysis/model_building/XX01ZVNS2B-x0709/cootOut/Refi
REMARK            -m \
REMARK            /dls/labxchem/data/lb32627/lb32627-65/processing/analysis/model_building/XX01ZVNS2B-x0709/XX01ZVNS2B-x
REMARK            -l \
REMARK            /dls/labxchem/data/lb32627/lb32627-65/processing/analysis/model_building/XX01ZVNS2B-x0709/Z1198317053.
REMARK            -autoncs -M TLSbasic -d Refine_9
REMARK Files used:
REMARK   PDB              = Refine_9/pdbchk.pdb
REMARK   MTZ              = /dls/labxchem/data/lb32627/lb32627-65/processing/analysis/model_building/XX01ZVNS2B-x0709/XX
REMARK output written to subdirectory = Refine_9
REMARK best refinement for F,SIGF with R/Rfree 0.2309/0.2845
REMARK header records are copied from input PDB file (apart from REMARK 3!)
REMARK --------------------- added by autoBUSTER -----------------------------------END
REMARK --------------------- added by autoBUSTER -------------------------------
REMARK run at   = Wed Aug  9 11:09:01 BST 2023                                  
REMARK     in   = /dls/labxchem/data/lb32627/lb32627-65/processing/analysis/mode
REMARK     user = kyf22269                                                      
REMARK     cmd  = \                                                             
REMARK            /dls_sw/apps/GPhL/BUSTER/20230614/autoBUSTER/bin/linux64/refin
REMARK            -p \                                                          
REMARK            /dls/labxchem/data/lb32627/lb32627-65/processing/analysis/mode
REMARK            -m \                                                          
REMARK            /dls/labxchem/data/lb32627/lb32627-65/processing/analysis/mode
REMARK            -l \                                                          
REMARK            /dls/labxchem/data/lb32627/lb32627-65/processing/analysis/mode
REMARK            -autoncs -M TLSbasic -d Refine_8                              
REMARK Files used:                                                              
REMARK   PDB              = Refine_8/pdbchk.pdb                                 
REMARK   MTZ              = /dls/labxchem/data/lb32627/lb32627-65/processing/ana
REMARK output written to subdirectory = Refine_8                                
REMARK best refinement for F,SIGF with R/Rfree 0.2311/0.2844                    
REMARK header records are copied from input PDB file (apart from REMARK 3!)     
REMARK --------------------- added by autoBUSTER -------------------------------
REMARK --------------------- added by autoBUSTER -------------------------------
REMARK run at   = Fri Aug  4 18:19:33 BST 2023                                  
REMARK     in   = /dls/labxchem/data/lb32627/lb32627-65/processing/analysis/mode
REMARK     user = kyf22269                                                      
REMARK     cmd  = \                                                             
REMARK            /dls_sw/apps/GPhL/BUSTER/20230614/autoBUSTER/bin/linux64/refin
REMARK            -p \                                                          
REMARK            /dls/labxchem/data/lb32627/lb32627-65/processing/analysis/mode
REMARK            -m \                                                          
REMARK            /dls/labxchem/data/lb32627/lb32627-65/processing/analysis/mode
REMARK            -l \                                                          
REMARK            /dls/labxchem/data/lb32627/lb32627-65/processing/analysis/mode
REMARK            -autoncs -M TLSbasic -d Refine_7                              
REMARK Files used:                                                              
REMARK   PDB              = Refine_7/pdbchk.pdb                                 
REMARK   MTZ              = /dls/labxchem/data/lb32627/lb32627-65/processing/ana
REMARK output written to subdirectory = Refine_7                                
REMARK best refinement for F,SIGF with R/Rfree 0.2321/0.2843                    
REMARK header records are copied from input PDB file (apart from REMARK 3!)     
REMARK --------------------- added by autoBUSTER -------------------------------
REMARK --------------------- added by autoBUSTER -------------------------------
REMARK run at   = Tue Aug  1 16:27:50 BST 2023                                  
REMARK     in   = /dls/labxchem/data/lb32627/lb32627-65/processing/analysis/mode
REMARK     user = kyf22269                                                      
REMARK     cmd  = \                                                             
REMARK            /dls_sw/apps/GPhL/BUSTER/20230614/autoBUSTER/bin/linux64/refin
REMARK            -p \                                                          
REMARK            /dls/labxchem/data/lb32627/lb32627-65/processing/analysis/mode
REMARK            -m \                                                          
REMARK            /dls/labxchem/data/lb32627/lb32627-65/processing/analysis/mode
REMARK            -l \                                                          
REMARK            /dls/labxchem/data/lb32627/lb32627-65/processing/analysis/mode
REMARK            -autoncs -M TLSbasic -d Refine_6                              
REMARK Files used:                                                              
REMARK   PDB              = Refine_6/pdbchk.pdb                                 
REMARK   MTZ              = /dls/labxchem/data/lb32627/lb32627-65/processing/ana
REMARK output written to subdirectory = Refine_6                                
REMARK best refinement for F,SIGF with R/Rfree 0.2307/0.2791                    
REMARK header records are copied from input PDB file (apart from REMARK 3!)     
REMARK --------------------- added by autoBUSTER -------------------------------
REMARK --------------------- added by autoBUSTER -------------------------------
REMARK run at   = Mon Jul 17 14:00:48 BST 2023                                  
REMARK     in   = /dls/labxchem/data/lb32627/lb32627-65/processing/analysis/mode
REMARK     user = kyf22269                                                      
REMARK     cmd  = \                                                             
REMARK            /dls_sw/apps/GPhL/BUSTER/20230614/autoBUSTER/bin/linux64/refin
REMARK            -p \                                                          
REMARK            /dls/labxchem/data/lb32627/lb32627-65/processing/analysis/mode
REMARK            -m \                                                          
REMARK            /dls/labxchem/data/lb32627/lb32627-65/processing/analysis/mode
REMARK            -l \                                                          
REMARK            /dls/labxchem/data/lb32627/lb32627-65/processing/analysis/mode
REMARK            -autoncs -M TLSbasic -d Refine_5                              
REMARK Files used:                                                              
REMARK   PDB              = Refine_5/pdbchk.pdb                                 
REMARK   MTZ              = /dls/labxchem/data/lb32627/lb32627-65/processing/ana
REMARK output written to subdirectory = Refine_5                                
REMARK best refinement for F,SIGF with R/Rfree 0.2307/0.2671                    
REMARK header records are copied from input PDB file (apart from REMARK 3!)     
REMARK --------------------- added by autoBUSTER -------------------------------
REMARK --------------------- added by autoBUSTER -------------------------------
REMARK run at   = Tue May 30 13:15:43 BST 2023                                  
REMARK     in   = /dls/labxchem/data/lb32627/lb32627-65/processing/analysis/mode
REMARK     user = xau79897                                                      
REMARK     cmd  = \                                                             
REMARK            /dls_sw/apps/GPhL/BUSTER/20230217/autoBUSTER/bin/linux64/refin
REMARK            -p \                                                          
REMARK            /dls/labxchem/data/lb32627/lb32627-65/processing/analysis/mode
REMARK            -m \                                                          
REMARK            /dls/labxchem/data/lb32627/lb32627-65/processing/analysis/mode
REMARK            -l \                                                          
REMARK            /dls/labxchem/data/lb32627/lb32627-65/processing/analysis/mode
REMARK            -autoncs -M TLSbasic -WAT -B user -Gelly gelly.dat \          
REMARK            StopOnGellySanityCheckError=no -d Refine_4                    
REMARK Files used:                                                              
REMARK   PDB              = Refine_4/pdbchk.pdb                                 
REMARK   MTZ              = /dls/labxchem/data/lb32627/lb32627-65/processing/ana
REMARK   Gelly commands       = /dls/labxchem/data/lb32627/lb32627-65/processing
REMARK output written to subdirectory = Refine_4                                
REMARK best refinement for F,SIGF with R/Rfree 0.2311/0.2665                    
REMARK header records are copied from input PDB file (apart from REMARK 3!)     
REMARK --------------------- added by autoBUSTER -------------------------------
REMARK --------------------- added by autoBUSTER -------------------------------
REMARK run at   = Tue May 23 17:12:30 BST 2023                                  
REMARK     in   = /dls/labxchem/data/lb32627/lb32627-65/processing/analysis/mode
REMARK     user = xau79897                                                      
REMARK     cmd  = \                                                             
REMARK            /dls_sw/apps/GPhL/BUSTER/20230217/autoBUSTER/bin/linux64/refin
REMARK            -p \                                                          
REMARK            /dls/labxchem/data/lb32627/lb32627-65/processing/analysis/mode
REMARK            -m \                                                          
REMARK            /dls/labxchem/data/lb32627/lb32627-65/processing/analysis/mode
REMARK            -l \                                                          
REMARK            /dls/labxchem/data/lb32627/lb32627-65/processing/analysis/mode
REMARK            -autoncs -M TLSbasic -d Refine_3                              
REMARK Files used:                                                              
REMARK   PDB              = Refine_3/pdbchk.pdb                                 
REMARK   MTZ              = /dls/labxchem/data/lb32627/lb32627-65/processing/ana
REMARK output written to subdirectory = Refine_3                                
REMARK best refinement for F,SIGF with R/Rfree 0.2375/0.2657                    
REMARK header records are copied from input PDB file (apart from REMARK 3!)     
REMARK --------------------- added by autoBUSTER -------------------------------
REMARK   2                                                            
REMARK   2 RESOLUTION.    1.85 ANGSTROMS.
REMARK   3
REMARK   3 REFINEMENT.
REMARK   3   PROGRAM     : BUSTER 2.10.4 (14-JUN-2023)
REMARK   3   AUTHORS     : BRICOGNE,BLANC,BRANDL,FLENSBURG,KELLER,
REMARK   3               : PACIOREK,ROVERSI,SHARFF,SMART,VONRHEIN,WOMACK;
REMARK   3               : MATTHEWS,TEN EYCK,TRONRUD
REMARK   3
REMARK   3  DATA USED IN REFINEMENT.
REMARK   3   RESOLUTION RANGE HIGH (ANGSTROMS) : 1.849
REMARK   3   RESOLUTION RANGE LOW  (ANGSTROMS) : 54.24
REMARK   3   DATA CUTOFF            (SIGMA(F)) : 0.000
REMARK   3   COMPLETENESS FOR RANGE        (%) : 94.2
REMARK   3   NUMBER OF REFLECTIONS             : 17102
REMARK   3
REMARK   3  FIT TO DATA USED IN REFINEMENT.
REMARK   3   CROSS-VALIDATION METHOD          : THROUGHOUT
REMARK   3   FREE R VALUE TEST SET SELECTION  : RANDOM
REMARK   3   R VALUE     (WORKING + TEST SET) : 0.2335
REMARK   3   R VALUE            (WORKING SET) : 0.2309
REMARK   3   FREE R VALUE                     : 0.2845
REMARK   3   FREE R VALUE TEST SET SIZE   (%) : 4.950
REMARK   3   FREE R VALUE TEST SET COUNT      : 846
REMARK   3   ESTIMATED ERROR OF FREE R VALUE  : NULL
REMARK   3
REMARK   3  FIT IN THE HIGHEST RESOLUTION BIN.
REMARK   3   TOTAL NUMBER OF BINS USED           : 43
REMARK   3   BIN RESOLUTION RANGE HIGH       (A) : 1.85
REMARK   3   BIN RESOLUTION RANGE LOW        (A) : 1.87
REMARK   3   BIN COMPLETENESS (WORKING+TEST) (%) : 76.38
REMARK   3   REFLECTIONS IN BIN   (WORKING+TEST) : 408
REMARK   3   BIN R VALUE          (WORKING+TEST) : 0.3853
REMARK   3   REFLECTIONS IN BIN    (WORKING SET) : 379
REMARK   3   BIN R VALUE           (WORKING SET) : 0.3859
REMARK   3   BIN FREE R VALUE                    : 0.3766
REMARK   3   BIN FREE R VALUE TEST SET SIZE  (%) : 7.11
REMARK   3   BIN FREE R VALUE TEST SET COUNT     : 29
REMARK   3   ESTIMATED ERROR OF BIN FREE R VALUE : NULL
REMARK   3
REMARK   3  NUMBER OF NON-HYDROGEN ATOMS USED IN REFINEMENT.
REMARK   3   PROTEIN ATOMS            : 1447
REMARK   3   NUCLEIC ACID ATOMS       : 0
REMARK   3   HETEROGEN ATOMS          : 28
REMARK   3   SOLVENT ATOMS            : 85
REMARK   3
REMARK   3  B VALUES.
REMARK   3   FROM WILSON PLOT           (A**2) : 30.16
REMARK   3   MEAN B VALUE      (OVERALL, A**2) : 48.06
REMARK   3   OVERALL ANISOTROPIC B VALUE.
REMARK   3    B11 (A**2) : -6.14020
REMARK   3    B22 (A**2) : -6.14020
REMARK   3    B33 (A**2) : 12.28040
REMARK   3    B12 (A**2) : 0.00000
REMARK   3    B13 (A**2) : 0.00000
REMARK   3    B23 (A**2) : 0.00000
REMARK   3
REMARK   3  ESTIMATED COORDINATE ERROR.
REMARK   3   ESD FROM LUZZATI PLOT                    (A) : 0.29
REMARK   3   DPI (BLOW EQ-10) BASED ON R VALUE        (A) : 0.187
REMARK   3   DPI (BLOW EQ-9) BASED ON FREE R VALUE    (A) : 0.173
REMARK   3   DPI (CRUICKSHANK) BASED ON R VALUE       (A) : 0.173
REMARK   3   DPI (CRUICKSHANK) BASED ON FREE R VALUE  (A) : 0.167
REMARK   3
REMARK   3   REFERENCES: BLOW, D. (2002) ACTA CRYST D58, 792-797
REMARK   3               CRUICKSHANK, D.W.J. (1999) ACTA CRYST D55, 583-601
REMARK   3
REMARK   3  CORRELATION COEFFICIENTS.
REMARK   3   CORRELATION COEFFICIENT FO-FC      : 0.933
REMARK   3   CORRELATION COEFFICIENT FO-FC FREE : 0.895
REMARK   3
REMARK   3  X-RAY WEIGHT : 6.23
REMARK   3
REMARK   3  GEOMETRY FUNCTION.                                                  
REMARK   3   RESTRAINT LIBRARIES.                                               
REMARK   3    NUMBER OF LIBRARIES USED :  10                                    
REMARK   3    LIBRARY  1 : protgeo_eh99.dat (V1.6.4.20) 20220523  STANDARD      
REMARK   3                 AMINO ACID DICTIONARY. BONDS AND ANGLES FROM         
REMARK   3                 ENGH AND HUBER EH99. OTHER VALUES BASED ON           
REMARK   3                 PREVIOUS TNT OR TAKEN FROM CCP4. INCLUDES            
REMARK   3                 HYDROGEN ATOMS.                                      
REMARK   3    LIBRARY  2 : exoticaa.dat (V1.3.4.16) 20220523  COLLECTION        
REMARK   3                 OF NON-STANDARD AMINO ACIDS, MAINLY EH91             
REMARK   3                 WITHOUT IDEAL DISTANCE INFO                          
REMARK   3    LIBRARY  3 : nuclgeo.dat (V1.13.4.9) 20221011                     
REMARK   3    LIBRARY  4 : bcorrel.dat (V1.15.10.2) 20190616                    
REMARK   3    LIBRARY  5 : contact.dat (V1.15.12.10) 20191121                   
REMARK   3    LIBRARY  6 : idealdist_contact.dat (V1.3.4.13) 20220125           
REMARK   3                 IDEAL-DISTANCE CONTACT TERM DATA AS USED IN          
REMARK   3                 PROLSQ. VALUES USED HERE ARE BASED ON DATA           
REMARK   3                 HARVESTING OF PDB AS OF 20190109.                    
REMARK   3    LIBRARY  7 : restraints for LIG (unknown) from cif                
REMARK   3                 dictionary Z1198317053.cif; generated by GRADE       
REMARK   3                 1.2.21 (Feb 03 2022) from SMILES                     
REMARK   3                 Cc1cnc2n(CC(=O)O)ncc2c1 using MOGUL                  
REMARK   3                 1.8.5(274361), CSD as541be, with quantum             
REMARK   3                 mechanics RM1                                        
REMARK   3    LIBRARY  8 : restraints for DMS (DIMETHYL SULFOXIDE) from         
REMARK   3                 cif dictionary DMS.cif; generated by grade2          
REMARK   3                 version 1.1.0a7 from                                 
REMARK   3                 PDB_chemical_components_definition_file              
REMARK   3                 ftp://ftp.ebi.ac.uk/pub/databases/msd/pdbechem_v     
REMARK   3                 2/D/DMS/DMS.cif using RDKit 2021.03.4                
REMARK   3                 ((DatabaseID PDB-DMS))                               
REMARK   3    LIBRARY  9 : restraints for SO4 (SULFATE ION) from cif            
REMARK   3                 dictionary SO4.cif; generated by grade2 version      
REMARK   3                 1.1.0a7 from                                         
REMARK   3                 PDB_chemical_components_definition_file              
REMARK   3                 ftp://ftp.ebi.ac.uk/pub/databases/msd/pdbechem_v     
REMARK   3                 2/S/SO4/SO4.cif using RDKit 2021.03.4                
REMARK   3                 ((DatabaseID PDB-SO4))                               
REMARK   3    LIBRARY 10 : assume.dat (V1.9.4.3) 20221011                       
REMARK   3                                                                      
REMARK   3   NUMBER OF GEOMETRIC FUNCTION TERMS DEFINED : 15                    
REMARK   3   TERM                          COUNT    WEIGHT   FUNCTION.          
REMARK   3    BOND LENGTHS              :   1624 ;   2.00 ;  HARMONIC           
REMARK   3    BOND ANGLES               :   2232 ;   2.00 ;  HARMONIC           
REMARK   3    TORSION ANGLES            :    540 ;   2.00 ;  SINUSOIDAL         
REMARK   3    TRIGONAL CARBON PLANES    :   NULL ;   NULL ;  NULL               
REMARK   3    GENERAL PLANES            :    295 ;   5.00 ;  HARMONIC           
REMARK   3    ISOTROPIC THERMAL FACTORS :   1624 ;  10.00 ;  HARMONIC           
REMARK   3    BAD NON-BONDED CONTACTS   :   NULL ;   NULL ;  NULL               
REMARK   3    IMPROPER TORSIONS         :   NULL ;   NULL ;  NULL               
REMARK   3    PSEUDOROTATION ANGLES     :   NULL ;   NULL ;  NULL               
REMARK   3    CHIRAL IMPROPER TORSION   :    204 ;   5.00 ;  SEMIHARMONIC       
REMARK   3    SUM OF OCCUPANCIES        :   NULL ;   NULL ;  NULL               
REMARK   3    UTILITY DISTANCES         :   NULL ;   NULL ;  NULL               
REMARK   3    UTILITY ANGLES            :   NULL ;   NULL ;  NULL               
REMARK   3    UTILITY TORSION           :   NULL ;   NULL ;  NULL               
REMARK   3    IDEAL-DIST CONTACT TERM   :   1273 ;   4.00 ;  SEMIHARMONIC       
REMARK   3                                                                      
REMARK   3   RMS DEVIATIONS FROM IDEAL VALUES.                                  
REMARK   3   BOND LENGTHS                       (A) : 0.008                     
REMARK   3   BOND ANGLES                  (DEGREES) : 0.98                      
REMARK   3   PEPTIDE OMEGA TORSION ANGLES (DEGREES) : 3.50                      
REMARK   3   OTHER TORSION ANGLES         (DEGREES) : 15.73                     
REMARK   3                                                                      
REMARK   3   SIMILARITY.                                                        
REMARK   3    NCS.                                                              
REMARK   3     NCS METHOD: NONE                                                 
REMARK   3    TARGET RESTRAINTS.                                                
REMARK   3     TARGET REPRESENTATION : NONE                                     
REMARK   3     TARGET STRUCTURE : NULL                                          
REMARK   3                                                                      
REMARK   3  TLS DETAILS.                                                        
REMARK   3   NUMBER OF TLS GROUPS  :            2                               
REMARK   3                                                                      
REMARK   3   TLS GROUP :            1                                           
REMARK   3    SET : { A|* }                                                     
REMARK   3    ORIGIN FOR THE GROUP (A):  -14.5810   -1.3106  -19.9160           
REMARK   3    T TENSOR                                                          
REMARK   3     T11:    0.0211 T22:    0.0088                                    
REMARK   3     T33:   -0.2834 T12:    0.1542                                    
REMARK   3     T13:    0.0836 T23:    0.0749                                    
REMARK   3    L TENSOR                                                          
REMARK   3     L11:    4.2628 L22:    4.2366                                    
REMARK   3     L33:    3.6120 L12:   -2.1874                                    
REMARK   3     L13:    0.8320 L23:    1.1922                                    
REMARK   3    S TENSOR                                                          
REMARK   3     S11:    0.5033 S12:    0.3887 S13:    0.1002                     
REMARK   3     S21:   -0.6356 S22:   -0.3811 S23:   -0.1632                     
REMARK   3     S31:   -0.1491 S32:    0.4701 S33:   -0.1223                     
REMARK   3                                                                      
REMARK   3   TLS GROUP :            2                                           
REMARK   3    SET : { B|* }                                                     
REMARK   3    ORIGIN FOR THE GROUP (A):  -18.4666    1.6060  -15.7348           
REMARK   3    T TENSOR                                                          
REMARK   3     T11:    0.1196 T22:    0.0656                                    
REMARK   3     T33:   -0.1060 T12:    0.1555                                    
REMARK   3     T13:    0.0053 T23:    0.0199                                    
REMARK   3    L TENSOR                                                          
REMARK   3     L11:    1.2590 L22:    1.4203                                    
REMARK   3     L33:    2.3228 L12:   -1.1989                                    
REMARK   3     L13:    0.2851 L23:    0.2327                                    
REMARK   3    S TENSOR                                                          
REMARK   3     S11:    0.3720 S12:    0.1797 S13:    0.0825                     
REMARK   3     S21:   -0.2335 S22:   -0.3191 S23:    0.0607                     
REMARK   3     S31:    0.0011 S32:    0.1325 S33:   -0.0529                     
REMARK   3                                                                      
REMARK   3  REFINEMENT NOTES.                                                   
REMARK   3   NUMBER OF REFINEMENT NOTES :   1                                   
REMARK   3   NOTE   1 : IDEAL-DIST CONTACT TERM CONTACT SETUP. ALL ATOMS        
REMARK   3               HAVE CCP4 ATOM TYPE FROM LIBRARY                       
REMARK   3
REMARK   3  OTHER REFINEMENT REMARKS: NULL
REMARK   3
REMARK 290                                                            
REMARK 290 CRYSTALLOGRAPHIC SYMMETRY                                  
REMARK 290 SYMMETRY OPERATORS FOR SPACE GROUP: P 43 2 2               
REMARK 290                                                            
REMARK 290      SYMOP   SYMMETRY                                      
REMARK 290     NNNMMM   OPERATOR                                      
REMARK 290       1555   X,Y,Z                                         
REMARK 290       2555   -X,-Y,1/2+Z                                   
REMARK 290       3555   -Y,X,3/4+Z                                    
REMARK 290       4555   Y,-X,1/4+Z                                    
REMARK 290       5555   -X,Y,-Z                                       
REMARK 290       6555   X,-Y,1/2-Z                                    
REMARK 290       7555   Y,X,1/4-Z                                     
REMARK 290       8555   -Y,-X,3/4-Z                                   
REMARK 290                                                            
REMARK 290     WHERE NNN -> OPERATOR NUMBER                           
REMARK 290           MMM -> TRANSLATION VECTOR                        
REMARK 290                                                            
REMARK 290 CRYSTALLOGRAPHIC SYMMETRY TRANSFORMATIONS                  
REMARK 290 THE FOLLOWING TRANSFORMATIONS OPERATE ON THE ATOM/HETATM   
REMARK 290 RECORDS IN THIS ENTRY TO PRODUCE CRYSTALLOGRAPHICALLY      
REMARK 290 RELATED MOLECULES.                                         
REMARK 290   SMTRY1   1  1.000000  0.000000  0.000000        0.00000
REMARK 290   SMTRY2   1  0.000000  1.000000  0.000000        0.00000
REMARK 290   SMTRY3   1  0.000000  0.000000  1.000000        0.00000
REMARK 290   SMTRY1   2 -1.000000  0.000000  0.000000        0.00000
REMARK 290   SMTRY2   2  0.000000 -1.000000  0.000000        0.00000
REMARK 290   SMTRY3   2  0.000000  0.000000  1.000000      108.47900
REMARK 290   SMTRY1   3  0.000000 -1.000000  0.000000        0.00000
REMARK 290   SMTRY2   3  1.000000  0.000000  0.000000        0.00000
REMARK 290   SMTRY3   3  0.000000  0.000000  1.000000      162.71850
REMARK 290   SMTRY1   4  0.000000  1.000000  0.000000        0.00000
REMARK 290   SMTRY2   4 -1.000000  0.000000  0.000000        0.00000
REMARK 290   SMTRY3   4  0.000000  0.000000  1.000000       54.23950
REMARK 290   SMTRY1   5 -1.000000  0.000000  0.000000        0.00000
REMARK 290   SMTRY2   5  0.000000  1.000000  0.000000        0.00000
REMARK 290   SMTRY3   5  0.000000  0.000000 -1.000000        0.00000
REMARK 290   SMTRY1   6  1.000000  0.000000  0.000000        0.00000
REMARK 290   SMTRY2   6  0.000000 -1.000000  0.000000        0.00000
REMARK 290   SMTRY3   6  0.000000  0.000000 -1.000000      108.47900
REMARK 290   SMTRY1   7  0.000000  1.000000  0.000000        0.00000
REMARK 290   SMTRY2   7  1.000000  0.000000  0.000000        0.00000
REMARK 290   SMTRY3   7  0.000000  0.000000 -1.000000       54.23950
REMARK 290   SMTRY1   8  0.000000 -1.000000  0.000000        0.00000
REMARK 290   SMTRY2   8 -1.000000  0.000000  0.000000        0.00000
REMARK 290   SMTRY3   8  0.000000  0.000000 -1.000000      162.71850
REMARK 290                                                            
REMARK 290 REMARK: NULL                                               
CRYST1   42.567   42.567  216.958  90.00  90.00  90.00 P 43 2 2                 


$$$$
Zx0709a_ligand
  PyMOL3.0          3D                             0

 14 15  0  0  0  0  0  0  0  0999 V2000
   -5.1350    7.3900  -15.0600 C   0  0  0  0  0  0  0  0  0  0  0  0
   -5.0930    5.4880  -16.6270 N   0  0  0  0  0  0  0  0  0  0  0  0
   -5.4220    7.6950  -13.9160 O   0  0  0  0  0  0  0  0  0  0  0  0
   -4.5500    6.0380  -15.4020 C   0  0  0  0  0  0  0  0  0  0  0  0
   -4.2870    5.2470  -17.7100 N   0  0  0  0  0  0  0  0  0  0  0  0
   -5.3030    8.2050  -16.0830 O   0  0  0  0  0  0  0  0  0  0  0  0
   -5.0870    4.8710  -18.6850 C   0  0  0  0  0  0  0  0  0  0  0  0
   -7.4440    5.3220  -16.1070 N   0  0  0  0  0  0  0  0  0  0  0  0
   -6.4370    4.8460  -18.2610 C   0  0  0  0  0  0  0  0  0  0  0  0
   -6.3910    5.2400  -16.9230 C   0  0  0  0  0  0  0  0  0  0  0  0
   -8.6230    4.9820  -16.6690 C   0  0  0  0  0  0  0  0  0  0  0  0
   -7.6730    4.5140  -18.7960 C   0  0  0  0  0  0  0  0  0  0  0  0
   -8.8040    4.5750  -17.9960 C   0  0  0  0  0  0  0  0  0  0  0  0
  -10.1640    4.2080  -18.5340 C   0  0  0  0  0  0  0  0  0  0  0  0
  1  4  1  0  0  0  0
  1  6  4  0  0  0  0
  2  5  4  0  0  0  0
  2 10  4  0  0  0  0
  1  3  4  0  0  0  0
  2  4  1  0  0  0  0
  5  7  4  0  0  0  0
  7  9  4  0  0  0  0
  8 11  4  0  0  0  0
  9 10  4  0  0  0  0
  9 12  4  0  0  0  0
  8 10  4  0  0  0  0
 11 13  4  0  0  0  0
 12 13  4  0  0  0  0
 13 14  1  0  0  0  0
M  END
>  <pdb_header>
COMPND    XX01ZVNS2B-x0709_B_301_XX01ZVNS2B-x1291+B+301+1


$$$$
Zx0719a
  PyMOL3.0          3D                             0

 10 10  0  0  0  0  0  0  0  0999 V2000
   -6.4280    3.6330  -14.8020 N   0  0  0  0  0  0  0  0  0  0  0  0
   -4.9940    2.3720  -13.3240 C   0  0  0  0  0  0  0  0  0  0  0  0
   -7.2610    1.7910  -13.8210 O   0  0  0  0  0  0  0  0  0  0  0  0
   -6.3240    2.5690  -13.9940 C   0  0  0  0  0  0  0  0  0  0  0  0
   -9.4190    3.9570  -16.8370 N   0  0  0  0  0  0  0  0  0  0  0  0
   -7.6940    4.3160  -14.9920 C   0  0  0  0  0  0  0  0  0  0  0  0
   -7.5000    4.8400  -17.4810 N   0  0  0  0  0  0  0  0  0  0  0  0
   -8.1930    4.3100  -16.4540 C   0  0  0  0  0  0  0  0  0  0  0  0
   -9.4950    4.3090  -18.1650 C   0  0  0  0  0  0  0  0  0  0  0  0
   -8.3230    4.8460  -18.5700 C   0  0  0  0  0  0  0  0  0  0  0  0
  1  6  1  0  0  0  0
  3  4  2  0  0  0  0
  1  4  1  0  0  0  0
  2  4  1  0  0  0  0
  6  8  1  0  0  0  0
  7 10  4  0  0  0  0
  5  8  4  0  0  0  0
  7  8  4  0  0  0  0
  5  9  4  0  0  0  0
  9 10  4  0  0  0  0
M  END
>  <pdb_header>
HEADER    ----                                    18-MAY-23                     
TITLE     ---                                                                   
EXPDTA    X-RAY DIFFRACTION                                                     
REMARK --------------------- added by autoBUSTER ---------------------------------START
REMARK run at   = Thu Aug 10 13:41:39 BST 2023
REMARK     in   = /dls/labxchem/data/lb32627/lb32627-65/processing/analysis/model_building/XX01ZVNS2B-x0719
REMARK     user = kyf22269
REMARK     cmd  = \
REMARK            /dls_sw/apps/GPhL/BUSTER/20230614/autoBUSTER/bin/linux64/refine \
REMARK            -p \
REMARK            /dls/labxchem/data/lb32627/lb32627-65/processing/analysis/model_building/XX01ZVNS2B-x0719/cootOut/Refi
REMARK            -m \
REMARK            /dls/labxchem/data/lb32627/lb32627-65/processing/analysis/model_building/XX01ZVNS2B-x0719/XX01ZVNS2B-x
REMARK            -l \
REMARK            /dls/labxchem/data/lb32627/lb32627-65/processing/analysis/model_building/XX01ZVNS2B-x0719/Z1203191681.
REMARK            -autoncs -M TLSbasic -d Refine_7
REMARK Files used:
REMARK   PDB              = Refine_7/pdbchk.pdb
REMARK   MTZ              = /dls/labxchem/data/lb32627/lb32627-65/processing/analysis/model_building/XX01ZVNS2B-x0719/XX
REMARK output written to subdirectory = Refine_7
REMARK best refinement for F,SIGF with R/Rfree 0.2240/0.2421
REMARK header records are copied from input PDB file (apart from REMARK 3!)
REMARK --------------------- added by autoBUSTER -----------------------------------END
REMARK --------------------- added by autoBUSTER -------------------------------
REMARK run at   = Tue Aug  1 16:33:46 BST 2023                                  
REMARK     in   = /dls/labxchem/data/lb32627/lb32627-65/processing/analysis/mode
REMARK     user = kyf22269                                                      
REMARK     cmd  = \                                                             
REMARK            /dls_sw/apps/GPhL/BUSTER/20230614/autoBUSTER/bin/linux64/refin
REMARK            -p \                                                          
REMARK            /dls/labxchem/data/lb32627/lb32627-65/processing/analysis/mode
REMARK            -m \                                                          
REMARK            /dls/labxchem/data/lb32627/lb32627-65/processing/analysis/mode
REMARK            -l \                                                          
REMARK            /dls/labxchem/data/lb32627/lb32627-65/processing/analysis/mode
REMARK            -autoncs -M TLSbasic -d Refine_6                              
REMARK Files used:                                                              
REMARK   PDB              = Refine_6/pdbchk.pdb                                 
REMARK   MTZ              = /dls/labxchem/data/lb32627/lb32627-65/processing/ana
REMARK output written to subdirectory = Refine_6                                
REMARK best refinement for F,SIGF with R/Rfree 0.2242/0.2394                    
REMARK header records are copied from input PDB file (apart from REMARK 3!)     
REMARK --------------------- added by autoBUSTER -------------------------------
REMARK --------------------- added by autoBUSTER -------------------------------
REMARK run at   = Mon Jul 17 14:17:48 BST 2023                                  
REMARK     in   = /dls/labxchem/data/lb32627/lb32627-65/processing/analysis/mode
REMARK     user = kyf22269                                                      
REMARK     cmd  = \                                                             
REMARK            /dls_sw/apps/GPhL/BUSTER/20230614/autoBUSTER/bin/linux64/refin
REMARK            -p \                                                          
REMARK            /dls/labxchem/data/lb32627/lb32627-65/processing/analysis/mode
REMARK            -m \                                                          
REMARK            /dls/labxchem/data/lb32627/lb32627-65/processing/analysis/mode
REMARK            -l \                                                          
REMARK            /dls/labxchem/data/lb32627/lb32627-65/processing/analysis/mode
REMARK            -autoncs -M TLSbasic -d Refine_5                              
REMARK Files used:                                                              
REMARK   PDB              = Refine_5/pdbchk.pdb                                 
REMARK   MTZ              = /dls/labxchem/data/lb32627/lb32627-65/processing/ana
REMARK output written to subdirectory = Refine_5                                
REMARK best refinement for F,SIGF with R/Rfree 0.2284/0.2436                    
REMARK header records are copied from input PDB file (apart from REMARK 3!)     
REMARK --------------------- added by autoBUSTER -------------------------------
REMARK --------------------- added by autoBUSTER -------------------------------
REMARK run at   = Tue May 30 13:18:05 BST 2023                                  
REMARK     in   = /dls/labxchem/data/lb32627/lb32627-65/processing/analysis/mode
REMARK     user = xau79897                                                      
REMARK     cmd  = \                                                             
REMARK            /dls_sw/apps/GPhL/BUSTER/20230217/autoBUSTER/bin/linux64/refin
REMARK            -p \                                                          
REMARK            /dls/labxchem/data/lb32627/lb32627-65/processing/analysis/mode
REMARK            -m \                                                          
REMARK            /dls/labxchem/data/lb32627/lb32627-65/processing/analysis/mode
REMARK            -l \                                                          
REMARK            /dls/labxchem/data/lb32627/lb32627-65/processing/analysis/mode
REMARK            -autoncs -M TLSbasic -B user -Gelly gelly.dat \               
REMARK            StopOnGellySanityCheckError=no -d Refine_4                    
REMARK Files used:                                                              
REMARK   PDB              = Refine_4/pdbchk.pdb                                 
REMARK   MTZ              = /dls/labxchem/data/lb32627/lb32627-65/processing/ana
REMARK   Gelly commands       = /dls/labxchem/data/lb32627/lb32627-65/processing
REMARK output written to subdirectory = Refine_4                                
REMARK best refinement for F,SIGF with R/Rfree 0.2284/0.2434                    
REMARK header records are copied from input PDB file (apart from REMARK 3!)     
REMARK --------------------- added by autoBUSTER -------------------------------
REMARK --------------------- added by autoBUSTER -------------------------------
REMARK run at   = Tue May 23 17:12:50 BST 2023                                  
REMARK     in   = /dls/labxchem/data/lb32627/lb32627-65/processing/analysis/mode
REMARK     user = xau79897                                                      
REMARK     cmd  = \                                                             
REMARK            /dls_sw/apps/GPhL/BUSTER/20230217/autoBUSTER/bin/linux64/refin
REMARK            -p \                                                          
REMARK            /dls/labxchem/data/lb32627/lb32627-65/processing/analysis/mode
REMARK            -m \                                                          
REMARK            /dls/labxchem/data/lb32627/lb32627-65/processing/analysis/mode
REMARK            -l \                                                          
REMARK            /dls/labxchem/data/lb32627/lb32627-65/processing/analysis/mode
REMARK            -autoncs -M TLSbasic -d Refine_3                              
REMARK Files used:                                                              
REMARK   PDB              = Refine_3/pdbchk.pdb                                 
REMARK   MTZ              = /dls/labxchem/data/lb32627/lb32627-65/processing/ana
REMARK output written to subdirectory = Refine_3                                
REMARK best refinement for F,SIGF with R/Rfree 0.2311/0.2452                    
REMARK header records are copied from input PDB file (apart from REMARK 3!)     
REMARK --------------------- added by autoBUSTER -------------------------------
REMARK   2                                                            
REMARK   2 RESOLUTION.    1.35 ANGSTROMS.
REMARK   3
REMARK   3 REFINEMENT.
REMARK   3   PROGRAM     : BUSTER 2.10.4 (14-JUN-2023)
REMARK   3   AUTHORS     : BRICOGNE,BLANC,BRANDL,FLENSBURG,KELLER,
REMARK   3               : PACIOREK,ROVERSI,SHARFF,SMART,VONRHEIN,WOMACK;
REMARK   3               : MATTHEWS,TEN EYCK,TRONRUD
REMARK   3
REMARK   3  DATA USED IN REFINEMENT.
REMARK   3   RESOLUTION RANGE HIGH (ANGSTROMS) : 1.351
REMARK   3   RESOLUTION RANGE LOW  (ANGSTROMS) : 19.32
REMARK   3   DATA CUTOFF            (SIGMA(F)) : 0.000
REMARK   3   COMPLETENESS FOR RANGE        (%) : 95.5
REMARK   3   NUMBER OF REFLECTIONS             : 43684
REMARK   3
REMARK   3  FIT TO DATA USED IN REFINEMENT.
REMARK   3   CROSS-VALIDATION METHOD          : THROUGHOUT
REMARK   3   FREE R VALUE TEST SET SELECTION  : RANDOM
REMARK   3   R VALUE     (WORKING + TEST SET) : 0.2249
REMARK   3   R VALUE            (WORKING SET) : 0.2240
REMARK   3   FREE R VALUE                     : 0.2421
REMARK   3   FREE R VALUE TEST SET SIZE   (%) : 5.080
REMARK   3   FREE R VALUE TEST SET COUNT      : 2221
REMARK   3   ESTIMATED ERROR OF FREE R VALUE  : NULL
REMARK   3
REMARK   3  FIT IN THE HIGHEST RESOLUTION BIN.
REMARK   3   TOTAL NUMBER OF BINS USED           : 51
REMARK   3   BIN RESOLUTION RANGE HIGH       (A) : 1.35
REMARK   3   BIN RESOLUTION RANGE LOW        (A) : 1.38
REMARK   3   BIN COMPLETENESS (WORKING+TEST) (%) : 35.92
REMARK   3   REFLECTIONS IN BIN   (WORKING+TEST) : 874
REMARK   3   BIN R VALUE          (WORKING+TEST) : 0.6049
REMARK   3   REFLECTIONS IN BIN    (WORKING SET) : 831
REMARK   3   BIN R VALUE           (WORKING SET) : 0.6059
REMARK   3   BIN FREE R VALUE                    : 0.5858
REMARK   3   BIN FREE R VALUE TEST SET SIZE  (%) : 4.92
REMARK   3   BIN FREE R VALUE TEST SET COUNT     : 43
REMARK   3   ESTIMATED ERROR OF BIN FREE R VALUE : NULL
REMARK   3
REMARK   3  NUMBER OF NON-HYDROGEN ATOMS USED IN REFINEMENT.
REMARK   3   PROTEIN ATOMS            : 1476
REMARK   3   NUCLEIC ACID ATOMS       : 0
REMARK   3   HETEROGEN ATOMS          : 30
REMARK   3   SOLVENT ATOMS            : 100
REMARK   3
REMARK   3  B VALUES.
REMARK   3   FROM WILSON PLOT           (A**2) : 26.80
REMARK   3   MEAN B VALUE      (OVERALL, A**2) : 40.77
REMARK   3   OVERALL ANISOTROPIC B VALUE.
REMARK   3    B11 (A**2) : -4.49560
REMARK   3    B22 (A**2) : -4.49560
REMARK   3    B33 (A**2) : 8.99120
REMARK   3    B12 (A**2) : 0.00000
REMARK   3    B13 (A**2) : 0.00000
REMARK   3    B23 (A**2) : 0.00000
REMARK   3
REMARK   3  ESTIMATED COORDINATE ERROR.
REMARK   3   ESD FROM LUZZATI PLOT                    (A) : 0.26
REMARK   3   DPI (BLOW EQ-10) BASED ON R VALUE        (A) : 0.068
REMARK   3   DPI (BLOW EQ-9) BASED ON FREE R VALUE    (A) : 0.067
REMARK   3   DPI (CRUICKSHANK) BASED ON R VALUE       (A) : 0.066
REMARK   3   DPI (CRUICKSHANK) BASED ON FREE R VALUE  (A) : 0.065
REMARK   3
REMARK   3   REFERENCES: BLOW, D. (2002) ACTA CRYST D58, 792-797
REMARK   3               CRUICKSHANK, D.W.J. (1999) ACTA CRYST D55, 583-601
REMARK   3
REMARK   3  CORRELATION COEFFICIENTS.
REMARK   3   CORRELATION COEFFICIENT FO-FC      : 0.952
REMARK   3   CORRELATION COEFFICIENT FO-FC FREE : 0.951
REMARK   3
REMARK   3  X-RAY WEIGHT : 6.38
REMARK   3
REMARK   3  GEOMETRY FUNCTION.                                                  
REMARK   3   RESTRAINT LIBRARIES.                                               
REMARK   3    NUMBER OF LIBRARIES USED :   9                                    
REMARK   3    LIBRARY  1 : protgeo_eh99.dat (V1.6.4.20) 20220523  STANDARD      
REMARK   3                 AMINO ACID DICTIONARY. BONDS AND ANGLES FROM         
REMARK   3                 ENGH AND HUBER EH99. OTHER VALUES BASED ON           
REMARK   3                 PREVIOUS TNT OR TAKEN FROM CCP4. INCLUDES            
REMARK   3                 HYDROGEN ATOMS.                                      
REMARK   3    LIBRARY  2 : exoticaa.dat (V1.3.4.16) 20220523  COLLECTION        
REMARK   3                 OF NON-STANDARD AMINO ACIDS, MAINLY EH91             
REMARK   3                 WITHOUT IDEAL DISTANCE INFO                          
REMARK   3    LIBRARY  3 : nuclgeo.dat (V1.13.4.9) 20221011                     
REMARK   3    LIBRARY  4 : bcorrel.dat (V1.15.10.2) 20190616                    
REMARK   3    LIBRARY  5 : contact.dat (V1.15.12.10) 20191121                   
REMARK   3    LIBRARY  6 : idealdist_contact.dat (V1.3.4.13) 20220125           
REMARK   3                 IDEAL-DISTANCE CONTACT TERM DATA AS USED IN          
REMARK   3                 PROLSQ. VALUES USED HERE ARE BASED ON DATA           
REMARK   3                 HARVESTING OF PDB AS OF 20190109.                    
REMARK   3    LIBRARY  7 : restraints for LIG (unknown) from cif                
REMARK   3                 dictionary Z1203191681.cif; generated by GRADE       
REMARK   3                 1.2.21 (Feb 03 2022) from SMILES                     
REMARK   3                 CC(=O)NCc1ncc[nH]1 using MOGUL 1.8.5(274361),        
REMARK   3                 CSD as541be, with quantum mechanics RM1              
REMARK   3    LIBRARY  8 : restraints for DMS (DIMETHYL SULFOXIDE) from         
REMARK   3                 cif dictionary DMS.cif; generated by grade2          
REMARK   3                 version 1.1.0a7 from                                 
REMARK   3                 PDB_chemical_components_definition_file              
REMARK   3                 ftp://ftp.ebi.ac.uk/pub/databases/msd/pdbechem_v     
REMARK   3                 2/D/DMS/DMS.cif using RDKit 2021.03.4                
REMARK   3                 ((DatabaseID PDB-DMS))                               
REMARK   3    LIBRARY  9 : assume.dat (V1.9.4.3) 20221011                       
REMARK   3                                                                      
REMARK   3   NUMBER OF GEOMETRIC FUNCTION TERMS DEFINED : 15                    
REMARK   3   TERM                          COUNT    WEIGHT   FUNCTION.          
REMARK   3    BOND LENGTHS              :   1636 ;   2.00 ;  HARMONIC           
REMARK   3    BOND ANGLES               :   2237 ;   2.00 ;  HARMONIC           
REMARK   3    TORSION ANGLES            :    557 ;   2.00 ;  SINUSOIDAL         
REMARK   3    TRIGONAL CARBON PLANES    :   NULL ;   NULL ;  NULL               
REMARK   3    GENERAL PLANES            :    291 ;   5.00 ;  HARMONIC           
REMARK   3    ISOTROPIC THERMAL FACTORS :   1636 ;  10.00 ;  HARMONIC           
REMARK   3    BAD NON-BONDED CONTACTS   :   NULL ;   NULL ;  NULL               
REMARK   3    IMPROPER TORSIONS         :   NULL ;   NULL ;  NULL               
REMARK   3    PSEUDOROTATION ANGLES     :   NULL ;   NULL ;  NULL               
REMARK   3    CHIRAL IMPROPER TORSION   :    208 ;   5.00 ;  SEMIHARMONIC       
REMARK   3    SUM OF OCCUPANCIES        :   NULL ;   NULL ;  NULL               
REMARK   3    UTILITY DISTANCES         :   NULL ;   NULL ;  NULL               
REMARK   3    UTILITY ANGLES            :   NULL ;   NULL ;  NULL               
REMARK   3    UTILITY TORSION           :   NULL ;   NULL ;  NULL               
REMARK   3    IDEAL-DIST CONTACT TERM   :   1343 ;   4.00 ;  SEMIHARMONIC       
REMARK   3                                                                      
REMARK   3   RMS DEVIATIONS FROM IDEAL VALUES.                                  
REMARK   3   BOND LENGTHS                       (A) : 0.012                     
REMARK   3   BOND ANGLES                  (DEGREES) : 1.13                      
REMARK   3   PEPTIDE OMEGA TORSION ANGLES (DEGREES) : 4.27                      
REMARK   3   OTHER TORSION ANGLES         (DEGREES) : 15.42                     
REMARK   3                                                                      
REMARK   3   SIMILARITY.                                                        
REMARK   3    NCS.                                                              
REMARK   3     NCS METHOD: NONE                                                 
REMARK   3    TARGET RESTRAINTS.                                                
REMARK   3     TARGET REPRESENTATION : NONE                                     
REMARK   3     TARGET STRUCTURE : NULL                                          
REMARK   3                                                                      
REMARK   3  TLS DETAILS.                                                        
REMARK   3   NUMBER OF TLS GROUPS  :            2                               
REMARK   3                                                                      
REMARK   3   TLS GROUP :            1                                           
REMARK   3    SET : { A|* }                                                     
REMARK   3    ORIGIN FOR THE GROUP (A):  -14.7318   -1.2263  -19.8583           
REMARK   3    T TENSOR                                                          
REMARK   3     T11:    0.0208 T22:    0.0194                                    
REMARK   3     T33:   -0.1207 T12:    0.1038                                    
REMARK   3     T13:    0.0742 T23:    0.0563                                    
REMARK   3    L TENSOR                                                          
REMARK   3     L11:    2.3747 L22:    2.4313                                    
REMARK   3     L33:    2.5474 L12:   -1.2671                                    
REMARK   3     L13:    1.0730 L23:    0.2348                                    
REMARK   3    S TENSOR                                                          
REMARK   3     S11:    0.3398 S12:    0.3965 S13:    0.1610                     
REMARK   3     S21:   -0.4453 S22:   -0.2927 S23:   -0.1591                     
REMARK   3     S31:   -0.0812 S32:    0.5304 S33:   -0.0471                     
REMARK   3                                                                      
REMARK   3   TLS GROUP :            2                                           
REMARK   3    SET : { B|* }                                                     
REMARK   3    ORIGIN FOR THE GROUP (A):  -18.7629    1.2043  -15.9452           
REMARK   3    T TENSOR                                                          
REMARK   3     T11:    0.0645 T22:   -0.0124                                    
REMARK   3     T33:   -0.0196 T12:    0.0737                                    
REMARK   3     T13:    0.0202 T23:    0.0212                                    
REMARK   3    L TENSOR                                                          
REMARK   3     L11:    1.0781 L22:    0.8768                                    
REMARK   3     L33:    1.8094 L12:   -0.7610                                    
REMARK   3     L13:    0.6516 L23:    0.0374                                    
REMARK   3    S TENSOR                                                          
REMARK   3     S11:    0.1708 S12:    0.0927 S13:    0.0346                     
REMARK   3     S21:   -0.1816 S22:   -0.1945 S23:    0.0663                     
REMARK   3     S31:   -0.0892 S32:    0.2018 S33:    0.0238                     
REMARK   3                                                                      
REMARK   3  REFINEMENT NOTES.                                                   
REMARK   3   NUMBER OF REFINEMENT NOTES :   1                                   
REMARK   3   NOTE   1 : IDEAL-DIST CONTACT TERM CONTACT SETUP. ALL ATOMS        
REMARK   3               HAVE CCP4 ATOM TYPE FROM LIBRARY                       
REMARK   3
REMARK   3  OTHER REFINEMENT REMARKS: NULL
REMARK   3
REMARK 290                                                            
REMARK 290 CRYSTALLOGRAPHIC SYMMETRY                                  
REMARK 290 SYMMETRY OPERATORS FOR SPACE GROUP: P 43 2 2               
REMARK 290                                                            
REMARK 290      SYMOP   SYMMETRY                                      
REMARK 290     NNNMMM   OPERATOR                                      
REMARK 290       1555   X,Y,Z                                         
REMARK 290       2555   -X,-Y,1/2+Z                                   
REMARK 290       3555   -Y,X,3/4+Z                                    
REMARK 290       4555   Y,-X,1/4+Z                                    
REMARK 290       5555   -X,Y,-Z                                       
REMARK 290       6555   X,-Y,1/2-Z                                    
REMARK 290       7555   Y,X,1/4-Z                                     
REMARK 290       8555   -Y,-X,3/4-Z                                   
REMARK 290                                                            
REMARK 290     WHERE NNN -> OPERATOR NUMBER                           
REMARK 290           MMM -> TRANSLATION VECTOR                        
REMARK 290                                                            
REMARK 290 CRYSTALLOGRAPHIC SYMMETRY TRANSFORMATIONS                  
REMARK 290 THE FOLLOWING TRANSFORMATIONS OPERATE ON THE ATOM/HETATM   
REMARK 290 RECORDS IN THIS ENTRY TO PRODUCE CRYSTALLOGRAPHICALLY      
REMARK 290 RELATED MOLECULES.                                         
REMARK 290   SMTRY1   1  1.000000  0.000000  0.000000        0.00000
REMARK 290   SMTRY2   1  0.000000  1.000000  0.000000        0.00000
REMARK 290   SMTRY3   1  0.000000  0.000000  1.000000        0.00000
REMARK 290   SMTRY1   2 -1.000000  0.000000  0.000000        0.00000
REMARK 290   SMTRY2   2  0.000000 -1.000000  0.000000        0.00000
REMARK 290   SMTRY3   2  0.000000  0.000000  1.000000      108.22800
REMARK 290   SMTRY1   3  0.000000 -1.000000  0.000000        0.00000
REMARK 290   SMTRY2   3  1.000000  0.000000  0.000000        0.00000
REMARK 290   SMTRY3   3  0.000000  0.000000  1.000000      162.34200
REMARK 290   SMTRY1   4  0.000000  1.000000  0.000000        0.00000
REMARK 290   SMTRY2   4 -1.000000  0.000000  0.000000        0.00000
REMARK 290   SMTRY3   4  0.000000  0.000000  1.000000       54.11400
REMARK 290   SMTRY1   5 -1.000000  0.000000  0.000000        0.00000
REMARK 290   SMTRY2   5  0.000000  1.000000  0.000000        0.00000
REMARK 290   SMTRY3   5  0.000000  0.000000 -1.000000        0.00000
REMARK 290   SMTRY1   6  1.000000  0.000000  0.000000        0.00000
REMARK 290   SMTRY2   6  0.000000 -1.000000  0.000000        0.00000
REMARK 290   SMTRY3   6  0.000000  0.000000 -1.000000      108.22800
REMARK 290   SMTRY1   7  0.000000  1.000000  0.000000        0.00000
REMARK 290   SMTRY2   7  1.000000  0.000000  0.000000        0.00000
REMARK 290   SMTRY3   7  0.000000  0.000000 -1.000000       54.11400
REMARK 290   SMTRY1   8  0.000000 -1.000000  0.000000        0.00000
REMARK 290   SMTRY2   8 -1.000000  0.000000  0.000000        0.00000
REMARK 290   SMTRY3   8  0.000000  0.000000 -1.000000      162.34200
REMARK 290                                                            
REMARK 290 REMARK: NULL                                               
CRYST1   42.871   42.871  216.456  90.00  90.00  90.00 P 43 2 2                 


$$$$
Zx0719a_ligand
  PyMOL3.0          3D                             0

 10 10  0  0  0  0  0  0  0  0999 V2000
   -6.3240    2.5690  -13.9940 C   0  0  0  0  0  0  0  0  0  0  0  0
   -6.4280    3.6330  -14.8020 N   0  0  0  0  0  0  0  0  0  0  0  0
   -7.2610    1.7910  -13.8210 O   0  0  0  0  0  0  0  0  0  0  0  0
   -4.9940    2.3720  -13.3240 C   0  0  0  0  0  0  0  0  0  0  0  0
   -7.5000    4.8400  -17.4810 N   0  0  0  0  0  0  0  0  0  0  0  0
   -7.6940    4.3160  -14.9920 C   0  0  0  0  0  0  0  0  0  0  0  0
   -9.4190    3.9570  -16.8370 N   0  0  0  0  0  0  0  0  0  0  0  0
   -8.1930    4.3100  -16.4540 C   0  0  0  0  0  0  0  0  0  0  0  0
   -8.3230    4.8460  -18.5700 C   0  0  0  0  0  0  0  0  0  0  0  0
   -9.4950    4.3090  -18.1650 C   0  0  0  0  0  0  0  0  0  0  0  0
  1  2  1  0  0  0  0
  1  4  1  0  0  0  0
  2  6  1  0  0  0  0
  1  3  2  0  0  0  0
  5  9  4  0  0  0  0
  6  8  1  0  0  0  0
  5  8  4  0  0  0  0
  7  8  4  0  0  0  0
  9 10  4  0  0  0  0
  7 10  4  0  0  0  0
M  END
>  <pdb_header>
COMPND    XX01ZVNS2B-x0719_B_301_XX01ZVNS2B-x1291+B+301+1


$$$$
Zx0727a
  PyMOL3.0          3D                             0

 12 13  0  0  0  0  0  0  0  0999 V2000
   -5.0180    5.2000  -15.6680 N   0  0  0  0  0  0  0  0  0  0  0  0
   -3.6110    4.9890  -15.3970 C   0  0  0  0  0  0  0  0  0  0  0  0
   -5.5570    5.1050  -16.9030 C   0  0  0  0  0  0  0  0  0  0  0  0
   -4.7560    5.2590  -17.9690 N   0  0  0  0  0  0  0  0  0  0  0  0
   -5.2780    5.1710  -19.2030 C   0  0  0  0  0  0  0  0  0  0  0  0
   -6.5900    4.9300  -19.4560 C   0  0  0  0  0  0  0  0  0  0  0  0
   -7.4810    4.7640  -18.3740 C   0  0  0  0  0  0  0  0  0  0  0  0
   -8.8620    4.5180  -18.5610 C   0  0  0  0  0  0  0  0  0  0  0  0
   -9.6940    4.3680  -17.4930 C   0  0  0  0  0  0  0  0  0  0  0  0
   -9.2020    4.4450  -16.2010 C   0  0  0  0  0  0  0  0  0  0  0  0
   -7.8770    4.6780  -15.9750 C   0  0  0  0  0  0  0  0  0  0  0  0
   -6.9690    4.8510  -17.0500 C   0  0  0  0  0  0  0  0  0  0  0  0
  1  3  1  0  0  0  0
  1  2  1  0  0  0  0
  3  4  4  0  0  0  0
  3 12  4  0  0  0  0
  4  5  4  0  0  0  0
  5  6  4  0  0  0  0
  6  7  4  0  0  0  0
  7  8  4  0  0  0  0
  8  9  4  0  0  0  0
  9 10  4  0  0  0  0
 10 11  4  0  0  0  0
  7 12  4  0  0  0  0
 11 12  4  0  0  0  0
M  END
>  <pdb_header>
HEADER    ----                                    18-MAY-23                     
TITLE     ---                                                                   
EXPDTA    X-RAY DIFFRACTION                                                     
REMARK --------------------- added by autoBUSTER ---------------------------------START
REMARK run at   = Fri Sep 29 18:16:43 BST 2023
REMARK     in   = /dls/labxchem/data/lb32627/lb32627-65/processing/analysis/model_building/XX01ZVNS2B-x0727
REMARK     user = kyf22269
REMARK     cmd  = \
REMARK            /dls_sw/apps/GPhL/BUSTER/20230726/autoBUSTER/bin/linux64/refine \
REMARK            -p \
REMARK            /dls/labxchem/data/lb32627/lb32627-65/processing/analysis/model_building/XX01ZVNS2B-x0727/cootOut/Refi
REMARK            -m \
REMARK            /dls/labxchem/data/lb32627/lb32627-65/processing/analysis/model_building/XX01ZVNS2B-x0727/XX01ZVNS2B-x
REMARK            -l \
REMARK            /dls/labxchem/data/lb32627/lb32627-65/processing/analysis/model_building/XX01ZVNS2B-x0727/Z1216833237.
REMARK            -autoncs -M TLSbasic -d Refine_6
REMARK Files used:
REMARK   PDB              = Refine_6/pdbchk.pdb
REMARK   MTZ              = /dls/labxchem/data/lb32627/lb32627-65/processing/analysis/model_building/XX01ZVNS2B-x0727/XX
REMARK output written to subdirectory = Refine_6
REMARK best refinement for F,SIGF with R/Rfree 0.2159/0.2491
REMARK header records are copied from input PDB file (apart from REMARK 3!)
REMARK --------------------- added by autoBUSTER -----------------------------------END
REMARK --------------------- added by autoBUSTER -------------------------------
REMARK run at   = Thu Jun 15 18:54:35 BST 2023                                  
REMARK     in   = /dls/labxchem/data/lb32627/lb32627-65/processing/analysis/mode
REMARK     user = xau79897                                                      
REMARK     cmd  = \                                                             
REMARK            /dls_sw/apps/GPhL/BUSTER/20230614/autoBUSTER/bin/linux64/refin
REMARK            -p \                                                          
REMARK            /dls/labxchem/data/lb32627/lb32627-65/processing/analysis/mode
REMARK            -m \                                                          
REMARK            /dls/labxchem/data/lb32627/lb32627-65/processing/analysis/mode
REMARK            -l \                                                          
REMARK            /dls/labxchem/data/lb32627/lb32627-65/processing/analysis/mode
REMARK            -autoncs -M TLSbasic -B user -Gelly gelly.dat \               
REMARK            StopOnGellySanityCheckError=no -d Refine_5                    
REMARK Files used:                                                              
REMARK   PDB              = Refine_5/pdbchk.pdb                                 
REMARK   MTZ              = /dls/labxchem/data/lb32627/lb32627-65/processing/ana
REMARK   Gelly commands       = /dls/labxchem/data/lb32627/lb32627-65/processing
REMARK output written to subdirectory = Refine_5                                
REMARK best refinement for F,SIGF with R/Rfree 0.2158/0.2491                    
REMARK header records are copied from input PDB file (apart from REMARK 3!)     
REMARK --------------------- added by autoBUSTER -------------------------------
REMARK --------------------- added by autoBUSTER -------------------------------
REMARK run at   = Tue May 30 13:48:28 BST 2023                                  
REMARK     in   = /dls/labxchem/data/lb32627/lb32627-65/processing/analysis/mode
REMARK     user = xau79897                                                      
REMARK     cmd  = \                                                             
REMARK            /dls_sw/apps/GPhL/BUSTER/20230217/autoBUSTER/bin/linux64/refin
REMARK            -p \                                                          
REMARK            /dls/labxchem/data/lb32627/lb32627-65/processing/analysis/mode
REMARK            -m \                                                          
REMARK            /dls/labxchem/data/lb32627/lb32627-65/processing/analysis/mode
REMARK            -l \                                                          
REMARK            /dls/labxchem/data/lb32627/lb32627-65/processing/analysis/mode
REMARK            -autoncs -M TLSbasic -WAT -B user -Gelly gelly.dat \          
REMARK            StopOnGellySanityCheckError=no -d Refine_4                    
REMARK Files used:                                                              
REMARK   PDB              = Refine_4/pdbchk.pdb                                 
REMARK   MTZ              = /dls/labxchem/data/lb32627/lb32627-65/processing/ana
REMARK   Gelly commands       = /dls/labxchem/data/lb32627/lb32627-65/processing
REMARK output written to subdirectory = Refine_4                                
REMARK best refinement for F,SIGF with R/Rfree 0.2168/0.2511                    
REMARK header records are copied from input PDB file (apart from REMARK 3!)     
REMARK --------------------- added by autoBUSTER -------------------------------
REMARK --------------------- added by autoBUSTER -------------------------------
REMARK run at   = Tue May 23 17:13:05 BST 2023                                  
REMARK     in   = /dls/labxchem/data/lb32627/lb32627-65/processing/analysis/mode
REMARK     user = xau79897                                                      
REMARK     cmd  = \                                                             
REMARK            /dls_sw/apps/GPhL/BUSTER/20230217/autoBUSTER/bin/linux64/refin
REMARK            -p \                                                          
REMARK            /dls/labxchem/data/lb32627/lb32627-65/processing/analysis/mode
REMARK            -m \                                                          
REMARK            /dls/labxchem/data/lb32627/lb32627-65/processing/analysis/mode
REMARK            -l \                                                          
REMARK            /dls/labxchem/data/lb32627/lb32627-65/processing/analysis/mode
REMARK            -autoncs -M TLSbasic -d Refine_3                              
REMARK Files used:                                                              
REMARK   PDB              = Refine_3/pdbchk.pdb                                 
REMARK   MTZ              = /dls/labxchem/data/lb32627/lb32627-65/processing/ana
REMARK output written to subdirectory = Refine_3                                
REMARK best refinement for F,SIGF with R/Rfree 0.2241/0.2599                    
REMARK header records are copied from input PDB file (apart from REMARK 3!)     
REMARK --------------------- added by autoBUSTER -------------------------------
REMARK   2                                                            
REMARK   2 RESOLUTION.    1.80 ANGSTROMS.
REMARK   3
REMARK   3 REFINEMENT.
REMARK   3   PROGRAM     : BUSTER 2.10.4 (26-JUL-2023)
REMARK   3   AUTHORS     : BRICOGNE,BLANC,BRANDL,FLENSBURG,KELLER,
REMARK   3               : PACIOREK,ROVERSI,SHARFF,SMART,VONRHEIN,WOMACK;
REMARK   3               : MATTHEWS,TEN EYCK,TRONRUD
REMARK   3
REMARK   3  DATA USED IN REFINEMENT.
REMARK   3   RESOLUTION RANGE HIGH (ANGSTROMS) : 1.799
REMARK   3   RESOLUTION RANGE LOW  (ANGSTROMS) : 54.37
REMARK   3   DATA CUTOFF            (SIGMA(F)) : 0.000
REMARK   3   COMPLETENESS FOR RANGE        (%) : 96.2
REMARK   3   NUMBER OF REFLECTIONS             : 18940
REMARK   3
REMARK   3  FIT TO DATA USED IN REFINEMENT.
REMARK   3   CROSS-VALIDATION METHOD          : THROUGHOUT
REMARK   3   FREE R VALUE TEST SET SELECTION  : RANDOM
REMARK   3   R VALUE     (WORKING + TEST SET) : 0.2176
REMARK   3   R VALUE            (WORKING SET) : 0.2159
REMARK   3   FREE R VALUE                     : 0.2491
REMARK   3   FREE R VALUE TEST SET SIZE   (%) : 5.020
REMARK   3   FREE R VALUE TEST SET COUNT      : 950
REMARK   3   ESTIMATED ERROR OF FREE R VALUE  : NULL
REMARK   3
REMARK   3  FIT IN THE HIGHEST RESOLUTION BIN.
REMARK   3   TOTAL NUMBER OF BINS USED           : 48
REMARK   3   BIN RESOLUTION RANGE HIGH       (A) : 1.80
REMARK   3   BIN RESOLUTION RANGE LOW        (A) : 1.82
REMARK   3   BIN COMPLETENESS (WORKING+TEST) (%) : 69.30
REMARK   3   REFLECTIONS IN BIN   (WORKING+TEST) : 403
REMARK   3   BIN R VALUE          (WORKING+TEST) : 0.3692
REMARK   3   REFLECTIONS IN BIN    (WORKING SET) : 375
REMARK   3   BIN R VALUE           (WORKING SET) : 0.3706
REMARK   3   BIN FREE R VALUE                    : 0.3505
REMARK   3   BIN FREE R VALUE TEST SET SIZE  (%) : 6.95
REMARK   3   BIN FREE R VALUE TEST SET COUNT     : 28
REMARK   3   ESTIMATED ERROR OF BIN FREE R VALUE : NULL
REMARK   3
REMARK   3  NUMBER OF NON-HYDROGEN ATOMS USED IN REFINEMENT.
REMARK   3   PROTEIN ATOMS            : 1476
REMARK   3   NUCLEIC ACID ATOMS       : 0
REMARK   3   HETEROGEN ATOMS          : 20
REMARK   3   SOLVENT ATOMS            : 123
REMARK   3
REMARK   3  B VALUES.
REMARK   3   FROM WILSON PLOT           (A**2) : 30.68
REMARK   3   MEAN B VALUE      (OVERALL, A**2) : 42.47
REMARK   3   OVERALL ANISOTROPIC B VALUE.
REMARK   3    B11 (A**2) : -6.18420
REMARK   3    B22 (A**2) : -6.18420
REMARK   3    B33 (A**2) : 12.36830
REMARK   3    B12 (A**2) : 0.00000
REMARK   3    B13 (A**2) : 0.00000
REMARK   3    B23 (A**2) : 0.00000
REMARK   3
REMARK   3  ESTIMATED COORDINATE ERROR.
REMARK   3   ESD FROM LUZZATI PLOT                    (A) : 0.25
REMARK   3   DPI (BLOW EQ-10) BASED ON R VALUE        (A) : 0.159
REMARK   3   DPI (BLOW EQ-9) BASED ON FREE R VALUE    (A) : 0.142
REMARK   3   DPI (CRUICKSHANK) BASED ON R VALUE       (A) : 0.146
REMARK   3   DPI (CRUICKSHANK) BASED ON FREE R VALUE  (A) : 0.135
REMARK   3
REMARK   3   REFERENCES: BLOW, D. (2002) ACTA CRYST D58, 792-797
REMARK   3               CRUICKSHANK, D.W.J. (1999) ACTA CRYST D55, 583-601
REMARK   3
REMARK   3  CORRELATION COEFFICIENTS.
REMARK   3   CORRELATION COEFFICIENT FO-FC      : 0.935
REMARK   3   CORRELATION COEFFICIENT FO-FC FREE : 0.915
REMARK   3
REMARK   3  X-RAY WEIGHT : 5.35
REMARK   3
REMARK   3  GEOMETRY FUNCTION.                                                  
REMARK   3   RESTRAINT LIBRARIES.                                               
REMARK   3    NUMBER OF LIBRARIES USED :   9                                    
REMARK   3    LIBRARY  1 : protgeo_eh99.dat (V1.6.4.20) 20220523  STANDARD      
REMARK   3                 AMINO ACID DICTIONARY. BONDS AND ANGLES FROM         
REMARK   3                 ENGH AND HUBER EH99. OTHER VALUES BASED ON           
REMARK   3                 PREVIOUS TNT OR TAKEN FROM CCP4. INCLUDES            
REMARK   3                 HYDROGEN ATOMS.                                      
REMARK   3    LIBRARY  2 : exoticaa.dat (V1.3.4.16) 20220523  COLLECTION        
REMARK   3                 OF NON-STANDARD AMINO ACIDS, MAINLY EH91             
REMARK   3                 WITHOUT IDEAL DISTANCE INFO                          
REMARK   3    LIBRARY  3 : nuclgeo.dat (V1.13.4.9) 20221011                     
REMARK   3    LIBRARY  4 : bcorrel.dat (V1.15.10.2) 20190616                    
REMARK   3    LIBRARY  5 : contact.dat (V1.15.12.10) 20191121                   
REMARK   3    LIBRARY  6 : idealdist_contact.dat (V1.3.4.14) 20230724           
REMARK   3                 IDEAL-DISTANCE CONTACT TERM DATA AS USED IN          
REMARK   3                 PROLSQ. VALUES USED HERE ARE BASEd ON DATA           
REMARK   3                 HARVESTING OF PDB AS OF 20190109                     
REMARK   3    LIBRARY  7 : restraints for LIG (unknown) from cif                
REMARK   3                 dictionary Z1216833237.cif; generated by GRADE       
REMARK   3                 1.2.21 (Feb 03 2022) from SMILES                     
REMARK   3                 CNc1nccc2ccccc12 using MOGUL 1.8.5(274361), CSD      
REMARK   3                 as541be, with quantum mechanics RM1                  
REMARK   3    LIBRARY  8 : restraints for DMS (DIMETHYL SULFOXIDE) from         
REMARK   3                 cif dictionary DMS.cif; generated by grade2          
REMARK   3                 version 1.1.0a7 from                                 
REMARK   3                 PDB_chemical_components_definition_file              
REMARK   3                 ftp://ftp.ebi.ac.uk/pub/databases/msd/pdbechem_v     
REMARK   3                 2/D/DMS/DMS.cif using RDKit 2021.03.4                
REMARK   3                 ((DatabaseID PDB-DMS))                               
REMARK   3    LIBRARY  9 : assume.dat (V1.9.4.3) 20221011                       
REMARK   3                                                                      
REMARK   3   NUMBER OF GEOMETRIC FUNCTION TERMS DEFINED : 15                    
REMARK   3   TERM                          COUNT    WEIGHT   FUNCTION.          
REMARK   3    BOND LENGTHS              :   1597 ;   2.00 ;  HARMONIC           
REMARK   3    BOND ANGLES               :   2176 ;   2.00 ;  HARMONIC           
REMARK   3    TORSION ANGLES            :    536 ;   2.00 ;  SINUSOIDAL         
REMARK   3    TRIGONAL CARBON PLANES    :   NULL ;   NULL ;  NULL               
REMARK   3    GENERAL PLANES            :    287 ;   5.00 ;  HARMONIC           
REMARK   3    ISOTROPIC THERMAL FACTORS :   1597 ;  10.00 ;  HARMONIC           
REMARK   3    BAD NON-BONDED CONTACTS   :   NULL ;   NULL ;  NULL               
REMARK   3    IMPROPER TORSIONS         :   NULL ;   NULL ;  NULL               
REMARK   3    PSEUDOROTATION ANGLES     :   NULL ;   NULL ;  NULL               
REMARK   3    CHIRAL IMPROPER TORSION   :    196 ;   5.00 ;  SEMIHARMONIC       
REMARK   3    SUM OF OCCUPANCIES        :   NULL ;   NULL ;  NULL               
REMARK   3    UTILITY DISTANCES         :   NULL ;   NULL ;  NULL               
REMARK   3    UTILITY ANGLES            :   NULL ;   NULL ;  NULL               
REMARK   3    UTILITY TORSION           :   NULL ;   NULL ;  NULL               
REMARK   3    IDEAL-DIST CONTACT TERM   :   1321 ;   4.00 ;  SEMIHARMONIC       
REMARK   3                                                                      
REMARK   3   RMS DEVIATIONS FROM IDEAL VALUES.                                  
REMARK   3   BOND LENGTHS                       (A) : 0.009                     
REMARK   3   BOND ANGLES                  (DEGREES) : 0.99                      
REMARK   3   PEPTIDE OMEGA TORSION ANGLES (DEGREES) : 3.82                      
REMARK   3   OTHER TORSION ANGLES         (DEGREES) : 15.19                     
REMARK   3                                                                      
REMARK   3   SIMILARITY.                                                        
REMARK   3    NCS.                                                              
REMARK   3     NCS METHOD: NONE                                                 
REMARK   3    TARGET RESTRAINTS.                                                
REMARK   3     TARGET REPRESENTATION : NONE                                     
REMARK   3     TARGET STRUCTURE : NULL                                          
REMARK   3                                                                      
REMARK   3  TLS DETAILS.                                                        
REMARK   3   NUMBER OF TLS GROUPS  :            2                               
REMARK   3                                                                      
REMARK   3   TLS GROUP :            1                                           
REMARK   3    SET : { A|* }                                                     
REMARK   3    ORIGIN FOR THE GROUP (A):  -14.1922   -1.0938  -19.5964           
REMARK   3    T TENSOR                                                          
REMARK   3     T11:   -0.0181 T22:   -0.0903                                    
REMARK   3     T33:   -0.1666 T12:    0.0378                                    
REMARK   3     T13:    0.0953 T23:    0.0729                                    
REMARK   3    L TENSOR                                                          
REMARK   3     L11:    3.3019 L22:    3.5487                                    
REMARK   3     L33:    3.7050 L12:   -1.8357                                    
REMARK   3     L13:    1.0260 L23:    0.8124                                    
REMARK   3    S TENSOR                                                          
REMARK   3     S11:    0.3065 S12:    0.3125 S13:    0.1636                     
REMARK   3     S21:   -0.5035 S22:   -0.1907 S23:   -0.2088                     
REMARK   3     S31:   -0.0872 S32:    0.4987 S33:   -0.1157                     
REMARK   3                                                                      
REMARK   3   TLS GROUP :            2                                           
REMARK   3    SET : { B|* }                                                     
REMARK   3    ORIGIN FOR THE GROUP (A):  -18.6117    1.5302  -15.5215           
REMARK   3    T TENSOR                                                          
REMARK   3     T11:    0.0740 T22:   -0.0275                                    
REMARK   3     T33:   -0.0517 T12:    0.0758                                    
REMARK   3     T13:    0.0234 T23:    0.0288                                    
REMARK   3    L TENSOR                                                          
REMARK   3     L11:    1.4018 L22:    1.3532                                    
REMARK   3     L33:    2.1080 L12:   -0.8830                                    
REMARK   3     L13:    0.8358 L23:    0.3219                                    
REMARK   3    S TENSOR                                                          
REMARK   3     S11:    0.1923 S12:    0.0977 S13:    0.0582                     
REMARK   3     S21:   -0.1648 S22:   -0.1939 S23:    0.0517                     
REMARK   3     S31:   -0.0420 S32:    0.1998 S33:    0.0017                     
REMARK   3                                                                      
REMARK   3  REFINEMENT NOTES.                                                   
REMARK   3   NUMBER OF REFINEMENT NOTES :   1                                   
REMARK   3   NOTE   1 : IDEAL-DIST CONTACT TERM CONTACT SETUP. ALL ATOMS        
REMARK   3               HAVE CCP4 ATOM TYPE FROM LIBRARY                       
REMARK   3
REMARK   3  OTHER REFINEMENT REMARKS: NULL
REMARK   3
REMARK 290                                                            
REMARK 290 CRYSTALLOGRAPHIC SYMMETRY                                  
REMARK 290 SYMMETRY OPERATORS FOR SPACE GROUP: P 43 2 2               
REMARK 290                                                            
REMARK 290      SYMOP   SYMMETRY                                      
REMARK 290     NNNMMM   OPERATOR                                      
REMARK 290       1555   X,Y,Z                                         
REMARK 290       2555   -X,-Y,1/2+Z                                   
REMARK 290       3555   -Y,X,3/4+Z                                    
REMARK 290       4555   Y,-X,1/4+Z                                    
REMARK 290       5555   -X,Y,-Z                                       
REMARK 290       6555   X,-Y,1/2-Z                                    
REMARK 290       7555   Y,X,1/4-Z                                     
REMARK 290       8555   -Y,-X,3/4-Z                                   
REMARK 290                                                            
REMARK 290     WHERE NNN -> OPERATOR NUMBER                           
REMARK 290           MMM -> TRANSLATION VECTOR                        
REMARK 290                                                            
REMARK 290 CRYSTALLOGRAPHIC SYMMETRY TRANSFORMATIONS                  
REMARK 290 THE FOLLOWING TRANSFORMATIONS OPERATE ON THE ATOM/HETATM   
REMARK 290 RECORDS IN THIS ENTRY TO PRODUCE CRYSTALLOGRAPHICALLY      
REMARK 290 RELATED MOLECULES.                                         
REMARK 290   SMTRY1   1  1.000000  0.000000  0.000000        0.00000
REMARK 290   SMTRY2   1  0.000000  1.000000  0.000000        0.00000
REMARK 290   SMTRY3   1  0.000000  0.000000  1.000000        0.00000
REMARK 290   SMTRY1   2 -1.000000  0.000000  0.000000        0.00000
REMARK 290   SMTRY2   2  0.000000 -1.000000  0.000000        0.00000
REMARK 290   SMTRY3   2  0.000000  0.000000  1.000000      108.73600
REMARK 290   SMTRY1   3  0.000000 -1.000000  0.000000        0.00000
REMARK 290   SMTRY2   3  1.000000  0.000000  0.000000        0.00000
REMARK 290   SMTRY3   3  0.000000  0.000000  1.000000      163.10400
REMARK 290   SMTRY1   4  0.000000  1.000000  0.000000        0.00000
REMARK 290   SMTRY2   4 -1.000000  0.000000  0.000000        0.00000
REMARK 290   SMTRY3   4  0.000000  0.000000  1.000000       54.36800
REMARK 290   SMTRY1   5 -1.000000  0.000000  0.000000        0.00000
REMARK 290   SMTRY2   5  0.000000  1.000000  0.000000        0.00000
REMARK 290   SMTRY3   5  0.000000  0.000000 -1.000000        0.00000
REMARK 290   SMTRY1   6  1.000000  0.000000  0.000000        0.00000
REMARK 290   SMTRY2   6  0.000000 -1.000000  0.000000        0.00000
REMARK 290   SMTRY3   6  0.000000  0.000000 -1.000000      108.73600
REMARK 290   SMTRY1   7  0.000000  1.000000  0.000000        0.00000
REMARK 290   SMTRY2   7  1.000000  0.000000  0.000000        0.00000
REMARK 290   SMTRY3   7  0.000000  0.000000 -1.000000       54.36800
REMARK 290   SMTRY1   8  0.000000 -1.000000  0.000000        0.00000
REMARK 290   SMTRY2   8 -1.000000  0.000000  0.000000        0.00000
REMARK 290   SMTRY3   8  0.000000  0.000000 -1.000000      163.10400
REMARK 290                                                            
REMARK 290 REMARK: NULL                                               
CRYST1   42.518   42.518  217.472  90.00  90.00  90.00 P 43 2 2                 


$$$$
Zx0727a_ligand
  PyMOL3.0          3D                             0

 12 13  0  0  0  0  0  0  0  0999 V2000
   -3.6110    4.9890  -15.3970 C   0  0  0  0  0  0  0  0  0  0  0  0
   -5.0180    5.2000  -15.6680 N   0  0  0  0  0  0  0  0  0  0  0  0
   -5.5570    5.1050  -16.9030 C   0  0  0  0  0  0  0  0  0  0  0  0
   -4.7560    5.2590  -17.9690 N   0  0  0  0  0  0  0  0  0  0  0  0
   -6.9690    4.8510  -17.0500 C   0  0  0  0  0  0  0  0  0  0  0  0
   -7.4810    4.7640  -18.3740 C   0  0  0  0  0  0  0  0  0  0  0  0
   -6.5900    4.9300  -19.4560 C   0  0  0  0  0  0  0  0  0  0  0  0
   -5.2780    5.1710  -19.2030 C   0  0  0  0  0  0  0  0  0  0  0  0
   -7.8770    4.6780  -15.9750 C   0  0  0  0  0  0  0  0  0  0  0  0
   -9.2020    4.4450  -16.2010 C   0  0  0  0  0  0  0  0  0  0  0  0
   -9.6940    4.3680  -17.4930 C   0  0  0  0  0  0  0  0  0  0  0  0
   -8.8620    4.5180  -18.5610 C   0  0  0  0  0  0  0  0  0  0  0  0
  1  2  1  0  0  0  0
  2  3  1  0  0  0  0
  3  4  4  0  0  0  0
  3  5  4  0  0  0  0
  5  6  4  0  0  0  0
  5  9  4  0  0  0  0
  6  7  4  0  0  0  0
  6 12  4  0  0  0  0
  7  8  4  0  0  0  0
  4  8  4  0  0  0  0
  9 10  4  0  0  0  0
 10 11  4  0  0  0  0
 11 12  4  0  0  0  0
M  END
>  <pdb_header>
COMPND    XX01ZVNS2B-x0727_B_301_XX01ZVNS2B-x1291+B+301+1


$$$$
Zx0772a
  PyMOL3.0          3D                             0

 13 14  0  0  0  0  0  0  0  0999 V2000
   -7.6860    5.9150  -12.1560 N   0  0  0  0  0  0  0  0  0  0  0  0
   -7.7900    4.8920  -14.6950 C   0  0  0  0  0  0  0  0  0  0  0  0
   -9.0510    3.9410  -12.6430 O   0  0  0  0  0  0  0  0  0  0  0  0
   -6.6210    5.3280  -15.3110 C   0  0  0  0  0  0  0  0  0  0  0  0
   -7.6630    4.8570  -18.8560 N   0  0  0  0  0  0  0  0  0  0  0  0
   -6.5930    3.7830  -12.6850 O   0  0  0  0  0  0  0  0  0  0  0  0
   -9.9750    4.0730  -18.0000 S   0  0  0  0  0  0  0  0  0  0  0  0
   -6.5470    5.3810  -16.6950 C   0  0  0  0  0  0  0  0  0  0  0  0
   -7.6400    4.9860  -17.4660 C   0  0  0  0  0  0  0  0  0  0  0  0
   -8.8030    4.3910  -19.2350 C   0  0  0  0  0  0  0  0  0  0  0  0
   -8.8180    4.6000  -16.8200 C   0  0  0  0  0  0  0  0  0  0  0  0
   -8.9150    4.5710  -15.4380 C   0  0  0  0  0  0  0  0  0  0  0  0
   -7.7840    4.5330  -12.9640 S   0  0  0  0  0  0  0  0  0  0  0  0
  2  4  4  0  0  0  0
  2 12  4  0  0  0  0
  5  9  4  0  0  0  0
  6 13  2  0  0  0  0
  7 10  4  0  0  0  0
  4  8  4  0  0  0  0
  8  9  4  0  0  0  0
  5 10  4  0  0  0  0
  7 11  4  0  0  0  0
  9 11  4  0  0  0  0
 11 12  4  0  0  0  0
  1 13  1  0  0  0  0
  2 13  1  0  0  0  0
  3 13  2  0  0  0  0
M  END
>  <pdb_header>
HEADER    ----                                    18-MAY-23                     
TITLE     ---                                                                   
EXPDTA    X-RAY DIFFRACTION                                                     
REMARK --------------------- added by autoBUSTER ---------------------------------START
REMARK run at   = Fri Aug 11 10:28:54 BST 2023
REMARK     in   = /dls/labxchem/data/lb32627/lb32627-65/processing/analysis/model_building/XX01ZVNS2B-x0772
REMARK     user = kyf22269
REMARK     cmd  = \
REMARK            /dls_sw/apps/GPhL/BUSTER/20230614/autoBUSTER/bin/linux64/refine \
REMARK            -p \
REMARK            /dls/labxchem/data/lb32627/lb32627-65/processing/analysis/model_building/XX01ZVNS2B-x0772/cootOut/Refi
REMARK            -m \
REMARK            /dls/labxchem/data/lb32627/lb32627-65/processing/analysis/model_building/XX01ZVNS2B-x0772/XX01ZVNS2B-x
REMARK            -l \
REMARK            /dls/labxchem/data/lb32627/lb32627-65/processing/analysis/model_building/XX01ZVNS2B-x0772/Z1269184613.
REMARK            -autoncs -M TLSbasic -d Refine_10
REMARK Files used:
REMARK   PDB              = Refine_10/pdbchk.pdb
REMARK   MTZ              = /dls/labxchem/data/lb32627/lb32627-65/processing/analysis/model_building/XX01ZVNS2B-x0772/XX
REMARK output written to subdirectory = Refine_10
REMARK best refinement for F,SIGF with R/Rfree 0.2411/0.2867
REMARK header records are copied from input PDB file (apart from REMARK 3!)
REMARK --------------------- added by autoBUSTER -----------------------------------END
REMARK --------------------- added by autoBUSTER -------------------------------
REMARK run at   = Thu Aug 10 13:24:32 BST 2023                                  
REMARK     in   = /dls/labxchem/data/lb32627/lb32627-65/processing/analysis/mode
REMARK     user = kyf22269                                                      
REMARK     cmd  = \                                                             
REMARK            /dls_sw/apps/GPhL/BUSTER/20230614/autoBUSTER/bin/linux64/refin
REMARK            -p \                                                          
REMARK            /dls/labxchem/data/lb32627/lb32627-65/processing/analysis/mode
REMARK            -m \                                                          
REMARK            /dls/labxchem/data/lb32627/lb32627-65/processing/analysis/mode
REMARK            -l \                                                          
REMARK            /dls/labxchem/data/lb32627/lb32627-65/processing/analysis/mode
REMARK            -autoncs -M TLSbasic -d Refine_9                              
REMARK Files used:                                                              
REMARK   PDB              = Refine_9/pdbchk.pdb                                 
REMARK   MTZ              = /dls/labxchem/data/lb32627/lb32627-65/processing/ana
REMARK output written to subdirectory = Refine_9                                
REMARK best refinement for F,SIGF with R/Rfree 0.2427/0.2918                    
REMARK header records are copied from input PDB file (apart from REMARK 3!)     
REMARK --------------------- added by autoBUSTER -------------------------------
REMARK --------------------- added by autoBUSTER -------------------------------
REMARK run at   = Fri Aug  4 18:24:26 BST 2023                                  
REMARK     in   = /dls/labxchem/data/lb32627/lb32627-65/processing/analysis/mode
REMARK     user = kyf22269                                                      
REMARK     cmd  = \                                                             
REMARK            /dls_sw/apps/GPhL/BUSTER/20230614/autoBUSTER/bin/linux64/refin
REMARK            -p \                                                          
REMARK            /dls/labxchem/data/lb32627/lb32627-65/processing/analysis/mode
REMARK            -m \                                                          
REMARK            /dls/labxchem/data/lb32627/lb32627-65/processing/analysis/mode
REMARK            -l \                                                          
REMARK            /dls/labxchem/data/lb32627/lb32627-65/processing/analysis/mode
REMARK            -autoncs -M TLSbasic -d Refine_8                              
REMARK Files used:                                                              
REMARK   PDB              = Refine_8/pdbchk.pdb                                 
REMARK   MTZ              = /dls/labxchem/data/lb32627/lb32627-65/processing/ana
REMARK output written to subdirectory = Refine_8                                
REMARK best refinement for F,SIGF with R/Rfree 0.2410/0.2864                    
REMARK header records are copied from input PDB file (apart from REMARK 3!)     
REMARK --------------------- added by autoBUSTER -------------------------------
REMARK --------------------- added by autoBUSTER -------------------------------
REMARK run at   = Tue Aug  1 16:42:59 BST 2023                                  
REMARK     in   = /dls/labxchem/data/lb32627/lb32627-65/processing/analysis/mode
REMARK     user = kyf22269                                                      
REMARK     cmd  = \                                                             
REMARK            /dls_sw/apps/GPhL/BUSTER/20230614/autoBUSTER/bin/linux64/refin
REMARK            -p \                                                          
REMARK            /dls/labxchem/data/lb32627/lb32627-65/processing/analysis/mode
REMARK            -m \                                                          
REMARK            /dls/labxchem/data/lb32627/lb32627-65/processing/analysis/mode
REMARK            -l \                                                          
REMARK            /dls/labxchem/data/lb32627/lb32627-65/processing/analysis/mode
REMARK            -autoncs -M TLSbasic -d Refine_7                              
REMARK Files used:                                                              
REMARK   PDB              = Refine_7/pdbchk.pdb                                 
REMARK   MTZ              = /dls/labxchem/data/lb32627/lb32627-65/processing/ana
REMARK output written to subdirectory = Refine_7                                
REMARK best refinement for F,SIGF with R/Rfree 0.2430/0.2883                    
REMARK header records are copied from input PDB file (apart from REMARK 3!)     
REMARK --------------------- added by autoBUSTER -------------------------------
REMARK --------------------- added by autoBUSTER -------------------------------
REMARK run at   = Mon Jul 17 14:25:33 BST 2023                                  
REMARK     in   = /dls/labxchem/data/lb32627/lb32627-65/processing/analysis/mode
REMARK     user = kyf22269                                                      
REMARK     cmd  = \                                                             
REMARK            /dls_sw/apps/GPhL/BUSTER/20230614/autoBUSTER/bin/linux64/refin
REMARK            -p \                                                          
REMARK            /dls/labxchem/data/lb32627/lb32627-65/processing/analysis/mode
REMARK            -m \                                                          
REMARK            /dls/labxchem/data/lb32627/lb32627-65/processing/analysis/mode
REMARK            -l \                                                          
REMARK            /dls/labxchem/data/lb32627/lb32627-65/processing/analysis/mode
REMARK            -autoncs -M TLSbasic -d Refine_6                              
REMARK Files used:                                                              
REMARK   PDB              = Refine_6/pdbchk.pdb                                 
REMARK   MTZ              = /dls/labxchem/data/lb32627/lb32627-65/processing/ana
REMARK output written to subdirectory = Refine_6                                
REMARK best refinement for F,SIGF with R/Rfree 0.2404/0.2906                    
REMARK header records are copied from input PDB file (apart from REMARK 3!)     
REMARK --------------------- added by autoBUSTER -------------------------------
REMARK --------------------- added by autoBUSTER -------------------------------
REMARK run at   = Tue May 30 13:50:48 BST 2023                                  
REMARK     in   = /dls/labxchem/data/lb32627/lb32627-65/processing/analysis/mode
REMARK     user = xau79897                                                      
REMARK     cmd  = \                                                             
REMARK            /dls_sw/apps/GPhL/BUSTER/20230217/autoBUSTER/bin/linux64/refin
REMARK            -p \                                                          
REMARK            /dls/labxchem/data/lb32627/lb32627-65/processing/analysis/mode
REMARK            -m \                                                          
REMARK            /dls/labxchem/data/lb32627/lb32627-65/processing/analysis/mode
REMARK            -l \                                                          
REMARK            /dls/labxchem/data/lb32627/lb32627-65/processing/analysis/mode
REMARK            -autoncs -M TLSbasic -WAT -B user -Gelly gelly.dat \          
REMARK            StopOnGellySanityCheckError=no -d Refine_5                    
REMARK Files used:                                                              
REMARK   PDB              = Refine_5/pdbchk.pdb                                 
REMARK   MTZ              = /dls/labxchem/data/lb32627/lb32627-65/processing/ana
REMARK   Gelly commands       = /dls/labxchem/data/lb32627/lb32627-65/processing
REMARK output written to subdirectory = Refine_5                                
REMARK best refinement for F,SIGF with R/Rfree 0.2405/0.2920                    
REMARK header records are copied from input PDB file (apart from REMARK 3!)     
REMARK --------------------- added by autoBUSTER -------------------------------
REMARK --------------------- added by autoBUSTER -------------------------------
REMARK run at   = Tue May 23 17:13:37 BST 2023                                  
REMARK     in   = /dls/labxchem/data/lb32627/lb32627-65/processing/analysis/mode
REMARK     user = xau79897                                                      
REMARK     cmd  = \                                                             
REMARK            /dls_sw/apps/GPhL/BUSTER/20230217/autoBUSTER/bin/linux64/refin
REMARK            -p \                                                          
REMARK            /dls/labxchem/data/lb32627/lb32627-65/processing/analysis/mode
REMARK            -m \                                                          
REMARK            /dls/labxchem/data/lb32627/lb32627-65/processing/analysis/mode
REMARK            -l \                                                          
REMARK            /dls/labxchem/data/lb32627/lb32627-65/processing/analysis/mode
REMARK            -autoncs -M TLSbasic -d Refine_4                              
REMARK Files used:                                                              
REMARK   PDB              = Refine_4/pdbchk.pdb                                 
REMARK   MTZ              = /dls/labxchem/data/lb32627/lb32627-65/processing/ana
REMARK output written to subdirectory = Refine_4                                
REMARK best refinement for F,SIGF with R/Rfree 0.2478/0.2836                    
REMARK header records are copied from input PDB file (apart from REMARK 3!)     
REMARK --------------------- added by autoBUSTER -------------------------------
REMARK   2                                                            
REMARK   2 RESOLUTION.    1.77 ANGSTROMS.
REMARK   3
REMARK   3 REFINEMENT.
REMARK   3   PROGRAM     : BUSTER 2.10.4 (14-JUN-2023)
REMARK   3   AUTHORS     : BRICOGNE,BLANC,BRANDL,FLENSBURG,KELLER,
REMARK   3               : PACIOREK,ROVERSI,SHARFF,SMART,VONRHEIN,WOMACK;
REMARK   3               : MATTHEWS,TEN EYCK,TRONRUD
REMARK   3
REMARK   3  DATA USED IN REFINEMENT.
REMARK   3   RESOLUTION RANGE HIGH (ANGSTROMS) : 1.770
REMARK   3   RESOLUTION RANGE LOW  (ANGSTROMS) : 54.35
REMARK   3   DATA CUTOFF            (SIGMA(F)) : 0.000
REMARK   3   COMPLETENESS FOR RANGE        (%) : 93.0
REMARK   3   NUMBER OF REFLECTIONS             : 19395
REMARK   3
REMARK   3  FIT TO DATA USED IN REFINEMENT.
REMARK   3   CROSS-VALIDATION METHOD          : THROUGHOUT
REMARK   3   FREE R VALUE TEST SET SELECTION  : RANDOM
REMARK   3   R VALUE     (WORKING + TEST SET) : 0.2434
REMARK   3   R VALUE            (WORKING SET) : 0.2411
REMARK   3   FREE R VALUE                     : 0.2867
REMARK   3   FREE R VALUE TEST SET SIZE   (%) : 5.010
REMARK   3   FREE R VALUE TEST SET COUNT      : 971
REMARK   3   ESTIMATED ERROR OF FREE R VALUE  : NULL
REMARK   3
REMARK   3  FIT IN THE HIGHEST RESOLUTION BIN.
REMARK   3   TOTAL NUMBER OF BINS USED           : 49
REMARK   3   BIN RESOLUTION RANGE HIGH       (A) : 1.77
REMARK   3   BIN RESOLUTION RANGE LOW        (A) : 1.79
REMARK   3   BIN COMPLETENESS (WORKING+TEST) (%) : 50.32
REMARK   3   REFLECTIONS IN BIN   (WORKING+TEST) : 405
REMARK   3   BIN R VALUE          (WORKING+TEST) : 0.4655
REMARK   3   REFLECTIONS IN BIN    (WORKING SET) : 384
REMARK   3   BIN R VALUE           (WORKING SET) : 0.4690
REMARK   3   BIN FREE R VALUE                    : 0.4009
REMARK   3   BIN FREE R VALUE TEST SET SIZE  (%) : 5.19
REMARK   3   BIN FREE R VALUE TEST SET COUNT     : 21
REMARK   3   ESTIMATED ERROR OF BIN FREE R VALUE : NULL
REMARK   3
REMARK   3  NUMBER OF NON-HYDROGEN ATOMS USED IN REFINEMENT.
REMARK   3   PROTEIN ATOMS            : 1476
REMARK   3   NUCLEIC ACID ATOMS       : 0
REMARK   3   HETEROGEN ATOMS          : 22
REMARK   3   SOLVENT ATOMS            : 108
REMARK   3
REMARK   3  B VALUES.
REMARK   3   FROM WILSON PLOT           (A**2) : 37.12
REMARK   3   MEAN B VALUE      (OVERALL, A**2) : 52.11
REMARK   3   OVERALL ANISOTROPIC B VALUE.
REMARK   3    B11 (A**2) : -6.93040
REMARK   3    B22 (A**2) : -6.93040
REMARK   3    B33 (A**2) : 13.86090
REMARK   3    B12 (A**2) : 0.00000
REMARK   3    B13 (A**2) : 0.00000
REMARK   3    B23 (A**2) : 0.00000
REMARK   3
REMARK   3  ESTIMATED COORDINATE ERROR.
REMARK   3   ESD FROM LUZZATI PLOT                    (A) : 0.33
REMARK   3   DPI (BLOW EQ-10) BASED ON R VALUE        (A) : 0.173
REMARK   3   DPI (BLOW EQ-9) BASED ON FREE R VALUE    (A) : 0.160
REMARK   3   DPI (CRUICKSHANK) BASED ON R VALUE       (A) : 0.160
REMARK   3   DPI (CRUICKSHANK) BASED ON FREE R VALUE  (A) : 0.153
REMARK   3
REMARK   3   REFERENCES: BLOW, D. (2002) ACTA CRYST D58, 792-797
REMARK   3               CRUICKSHANK, D.W.J. (1999) ACTA CRYST D55, 583-601
REMARK   3
REMARK   3  CORRELATION COEFFICIENTS.
REMARK   3   CORRELATION COEFFICIENT FO-FC      : 0.938
REMARK   3   CORRELATION COEFFICIENT FO-FC FREE : 0.918
REMARK   3
REMARK   3  X-RAY WEIGHT : 7.33
REMARK   3
REMARK   3  GEOMETRY FUNCTION.                                                  
REMARK   3   RESTRAINT LIBRARIES.                                               
REMARK   3    NUMBER OF LIBRARIES USED :  10                                    
REMARK   3    LIBRARY  1 : protgeo_eh99.dat (V1.6.4.20) 20220523  STANDARD      
REMARK   3                 AMINO ACID DICTIONARY. BONDS AND ANGLES FROM         
REMARK   3                 ENGH AND HUBER EH99. OTHER VALUES BASED ON           
REMARK   3                 PREVIOUS TNT OR TAKEN FROM CCP4. INCLUDES            
REMARK   3                 HYDROGEN ATOMS.                                      
REMARK   3    LIBRARY  2 : exoticaa.dat (V1.3.4.16) 20220523  COLLECTION        
REMARK   3                 OF NON-STANDARD AMINO ACIDS, MAINLY EH91             
REMARK   3                 WITHOUT IDEAL DISTANCE INFO                          
REMARK   3    LIBRARY  3 : nuclgeo.dat (V1.13.4.9) 20221011                     
REMARK   3    LIBRARY  4 : bcorrel.dat (V1.15.10.2) 20190616                    
REMARK   3    LIBRARY  5 : contact.dat (V1.15.12.10) 20191121                   
REMARK   3    LIBRARY  6 : idealdist_contact.dat (V1.3.4.13) 20220125           
REMARK   3                 IDEAL-DISTANCE CONTACT TERM DATA AS USED IN          
REMARK   3                 PROLSQ. VALUES USED HERE ARE BASED ON DATA           
REMARK   3                 HARVESTING OF PDB AS OF 20190109.                    
REMARK   3    LIBRARY  7 : restraints for LIG (unknown) from cif                
REMARK   3                 dictionary Z1269184613.cif; generated by GRADE       
REMARK   3                 1.2.21 (Feb 03 2022) from SMILES                     
REMARK   3                 NS(=O)(=O)c1ccc2ncsc2c1 using MOGUL                  
REMARK   3                 1.8.5(274361), CSD as541be, with quantum             
REMARK   3                 mechanics RM1                                        
REMARK   3    LIBRARY  8 : restraints for DMS (DIMETHYL SULFOXIDE) from         
REMARK   3                 cif dictionary DMS.cif; generated by grade2          
REMARK   3                 version 1.1.0a7 from                                 
REMARK   3                 PDB_chemical_components_definition_file              
REMARK   3                 ftp://ftp.ebi.ac.uk/pub/databases/msd/pdbechem_v     
REMARK   3                 2/D/DMS/DMS.cif using RDKit 2021.03.4                
REMARK   3                 ((DatabaseID PDB-DMS))                               
REMARK   3    LIBRARY  9 : restraints for SO4 (SULFATE ION) from cif            
REMARK   3                 dictionary SO4.cif; generated by grade2 version      
REMARK   3                 1.1.0a7 from                                         
REMARK   3                 PDB_chemical_components_definition_file              
REMARK   3                 ftp://ftp.ebi.ac.uk/pub/databases/msd/pdbechem_v     
REMARK   3                 2/S/SO4/SO4.cif using RDKit 2021.03.4                
REMARK   3                 ((DatabaseID PDB-SO4))                               
REMARK   3    LIBRARY 10 : assume.dat (V1.9.4.3) 20221011                       
REMARK   3                                                                      
REMARK   3   NUMBER OF GEOMETRIC FUNCTION TERMS DEFINED : 15                    
REMARK   3   TERM                          COUNT    WEIGHT   FUNCTION.          
REMARK   3    BOND LENGTHS              :   1632 ;   2.00 ;  HARMONIC           
REMARK   3    BOND ANGLES               :   2240 ;   2.00 ;  HARMONIC           
REMARK   3    TORSION ANGLES            :    555 ;   2.00 ;  SINUSOIDAL         
REMARK   3    TRIGONAL CARBON PLANES    :   NULL ;   NULL ;  NULL               
REMARK   3    GENERAL PLANES            :    298 ;   5.00 ;  HARMONIC           
REMARK   3    ISOTROPIC THERMAL FACTORS :   1632 ;  10.00 ;  HARMONIC           
REMARK   3    BAD NON-BONDED CONTACTS   :   NULL ;   NULL ;  NULL               
REMARK   3    IMPROPER TORSIONS         :   NULL ;   NULL ;  NULL               
REMARK   3    PSEUDOROTATION ANGLES     :   NULL ;   NULL ;  NULL               
REMARK   3    CHIRAL IMPROPER TORSION   :    208 ;   5.00 ;  SEMIHARMONIC       
REMARK   3    SUM OF OCCUPANCIES        :   NULL ;   NULL ;  NULL               
REMARK   3    UTILITY DISTANCES         :   NULL ;   NULL ;  NULL               
REMARK   3    UTILITY ANGLES            :   NULL ;   NULL ;  NULL               
REMARK   3    UTILITY TORSION           :   NULL ;   NULL ;  NULL               
REMARK   3    IDEAL-DIST CONTACT TERM   :   1276 ;   4.00 ;  SEMIHARMONIC       
REMARK   3                                                                      
REMARK   3   RMS DEVIATIONS FROM IDEAL VALUES.                                  
REMARK   3   BOND LENGTHS                       (A) : 0.009                     
REMARK   3   BOND ANGLES                  (DEGREES) : 1.00                      
REMARK   3   PEPTIDE OMEGA TORSION ANGLES (DEGREES) : 3.45                      
REMARK   3   OTHER TORSION ANGLES         (DEGREES) : 16.58                     
REMARK   3                                                                      
REMARK   3   SIMILARITY.                                                        
REMARK   3    NCS.                                                              
REMARK   3     NCS METHOD: NONE                                                 
REMARK   3    TARGET RESTRAINTS.                                                
REMARK   3     TARGET REPRESENTATION : NONE                                     
REMARK   3     TARGET STRUCTURE : NULL                                          
REMARK   3                                                                      
REMARK   3  TLS DETAILS.                                                        
REMARK   3   NUMBER OF TLS GROUPS  :            2                               
REMARK   3                                                                      
REMARK   3   TLS GROUP :            1                                           
REMARK   3    SET : { A|* }                                                     
REMARK   3    ORIGIN FOR THE GROUP (A):  -14.6918   -1.2270  -19.9438           
REMARK   3    T TENSOR                                                          
REMARK   3     T11:   -0.1455 T22:   -0.1444                                    
REMARK   3     T33:   -0.2061 T12:    0.0986                                    
REMARK   3     T13:    0.1037 T23:    0.1019                                    
REMARK   3    L TENSOR                                                          
REMARK   3     L11:    4.3504 L22:    3.8021                                    
REMARK   3     L33:    4.7140 L12:   -2.5033                                    
REMARK   3     L13:    0.6878 L23:    0.3524                                    
REMARK   3    S TENSOR                                                          
REMARK   3     S11:    0.3638 S12:    0.5270 S13:    0.1901                     
REMARK   3     S21:   -0.5559 S22:   -0.4071 S23:   -0.2517                     
REMARK   3     S31:   -0.1613 S32:    0.5829 S33:    0.0433                     
REMARK   3                                                                      
REMARK   3   TLS GROUP :            2                                           
REMARK   3    SET : { B|* }                                                     
REMARK   3    ORIGIN FOR THE GROUP (A):  -18.6745    1.3666  -15.9211           
REMARK   3    T TENSOR                                                          
REMARK   3     T11:    0.0020 T22:   -0.0793                                    
REMARK   3     T33:   -0.0271 T12:    0.1020                                    
REMARK   3     T13:    0.0303 T23:    0.0405                                    
REMARK   3    L TENSOR                                                          
REMARK   3     L11:    1.5878 L22:    2.1764                                    
REMARK   3     L33:    3.4162 L12:   -1.6962                                    
REMARK   3     L13:    0.6494 L23:    0.0873                                    
REMARK   3    S TENSOR                                                          
REMARK   3     S11:    0.2758 S12:    0.1354 S13:    0.2045                     
REMARK   3     S21:   -0.1462 S22:   -0.2913 S23:   -0.1042                     
REMARK   3     S31:   -0.0797 S32:    0.3262 S33:    0.0155                     
REMARK   3                                                                      
REMARK   3  REFINEMENT NOTES.                                                   
REMARK   3   NUMBER OF REFINEMENT NOTES :   1                                   
REMARK   3   NOTE   1 : IDEAL-DIST CONTACT TERM CONTACT SETUP. ALL ATOMS        
REMARK   3               HAVE CCP4 ATOM TYPE FROM LIBRARY                       
REMARK   3
REMARK   3  OTHER REFINEMENT REMARKS: NULL
REMARK   3
REMARK 290                                                            
REMARK 290 CRYSTALLOGRAPHIC SYMMETRY                                  
REMARK 290 SYMMETRY OPERATORS FOR SPACE GROUP: P 43 2 2               
REMARK 290                                                            
REMARK 290      SYMOP   SYMMETRY                                      
REMARK 290     NNNMMM   OPERATOR                                      
REMARK 290       1555   X,Y,Z                                         
REMARK 290       2555   -X,-Y,1/2+Z                                   
REMARK 290       3555   -Y,X,3/4+Z                                    
REMARK 290       4555   Y,-X,1/4+Z                                    
REMARK 290       5555   -X,Y,-Z                                       
REMARK 290       6555   X,-Y,1/2-Z                                    
REMARK 290       7555   Y,X,1/4-Z                                     
REMARK 290       8555   -Y,-X,3/4-Z                                   
REMARK 290                                                            
REMARK 290     WHERE NNN -> OPERATOR NUMBER                           
REMARK 290           MMM -> TRANSLATION VECTOR                        
REMARK 290                                                            
REMARK 290 CRYSTALLOGRAPHIC SYMMETRY TRANSFORMATIONS                  
REMARK 290 THE FOLLOWING TRANSFORMATIONS OPERATE ON THE ATOM/HETATM   
REMARK 290 RECORDS IN THIS ENTRY TO PRODUCE CRYSTALLOGRAPHICALLY      
REMARK 290 RELATED MOLECULES.                                         
REMARK 290   SMTRY1   1  1.000000  0.000000  0.000000        0.00000
REMARK 290   SMTRY2   1  0.000000  1.000000  0.000000        0.00000
REMARK 290   SMTRY3   1  0.000000  0.000000  1.000000        0.00000
REMARK 290   SMTRY1   2 -1.000000  0.000000  0.000000        0.00000
REMARK 290   SMTRY2   2  0.000000 -1.000000  0.000000        0.00000
REMARK 290   SMTRY3   2  0.000000  0.000000  1.000000      108.69450
REMARK 290   SMTRY1   3  0.000000 -1.000000  0.000000        0.00000
REMARK 290   SMTRY2   3  1.000000  0.000000  0.000000        0.00000
REMARK 290   SMTRY3   3  0.000000  0.000000  1.000000      163.04175
REMARK 290   SMTRY1   4  0.000000  1.000000  0.000000        0.00000
REMARK 290   SMTRY2   4 -1.000000  0.000000  0.000000        0.00000
REMARK 290   SMTRY3   4  0.000000  0.000000  1.000000       54.34725
REMARK 290   SMTRY1   5 -1.000000  0.000000  0.000000        0.00000
REMARK 290   SMTRY2   5  0.000000  1.000000  0.000000        0.00000
REMARK 290   SMTRY3   5  0.000000  0.000000 -1.000000        0.00000
REMARK 290   SMTRY1   6  1.000000  0.000000  0.000000        0.00000
REMARK 290   SMTRY2   6  0.000000 -1.000000  0.000000        0.00000
REMARK 290   SMTRY3   6  0.000000  0.000000 -1.000000      108.69450
REMARK 290   SMTRY1   7  0.000000  1.000000  0.000000        0.00000
REMARK 290   SMTRY2   7  1.000000  0.000000  0.000000        0.00000
REMARK 290   SMTRY3   7  0.000000  0.000000 -1.000000       54.34725
REMARK 290   SMTRY1   8  0.000000 -1.000000  0.000000        0.00000
REMARK 290   SMTRY2   8 -1.000000  0.000000  0.000000        0.00000
REMARK 290   SMTRY3   8  0.000000  0.000000 -1.000000      163.04175
REMARK 290                                                            
REMARK 290 REMARK: NULL                                               
CRYST1   42.780   42.780  217.389  90.00  90.00  90.00 P 43 2 2                 


$$$$
Zx0772a_ligand
  PyMOL3.0          3D                             0

 13 14  0  0  0  0  0  0  0  0999 V2000
   -7.7900    4.8920  -14.6950 C   0  0  0  0  0  0  0  0  0  0  0  0
   -7.6860    5.9150  -12.1560 N   0  0  0  0  0  0  0  0  0  0  0  0
   -6.5930    3.7830  -12.6850 O   0  0  0  0  0  0  0  0  0  0  0  0
   -7.7840    4.5330  -12.9640 S   0  0  0  0  0  0  0  0  0  0  0  0
   -8.9150    4.5710  -15.4380 C   0  0  0  0  0  0  0  0  0  0  0  0
   -7.6630    4.8570  -18.8560 N   0  0  0  0  0  0  0  0  0  0  0  0
   -9.0510    3.9410  -12.6430 O   0  0  0  0  0  0  0  0  0  0  0  0
   -9.9750    4.0730  -18.0000 S   0  0  0  0  0  0  0  0  0  0  0  0
   -8.8180    4.6000  -16.8200 C   0  0  0  0  0  0  0  0  0  0  0  0
   -8.8030    4.3910  -19.2350 C   0  0  0  0  0  0  0  0  0  0  0  0
   -7.6400    4.9860  -17.4660 C   0  0  0  0  0  0  0  0  0  0  0  0
   -6.5470    5.3810  -16.6950 C   0  0  0  0  0  0  0  0  0  0  0  0
   -6.6210    5.3280  -15.3110 C   0  0  0  0  0  0  0  0  0  0  0  0
  1  5  4  0  0  0  0
  1 13  4  0  0  0  0
  3  4  2  0  0  0  0
  1  4  1  0  0  0  0
  2  4  1  0  0  0  0
  4  7  2  0  0  0  0
  5  9  4  0  0  0  0
  6 11  4  0  0  0  0
  8 10  4  0  0  0  0
  8  9  4  0  0  0  0
  9 11  4  0  0  0  0
  6 10  4  0  0  0  0
 11 12  4  0  0  0  0
 12 13  4  0  0  0  0
M  END
>  <pdb_header>
COMPND    XX01ZVNS2B-x0772_B_301_XX01ZVNS2B-x1291+B+301+1


$$$$
Zx0773a
  PyMOL3.0          3D                             0

 28 30  0  0  0  0  0  0  0  0999 V2000
   -8.0790    5.1490  -16.4610 N   0  0  0  0  0  0  0  0  0  0  0  0
   -3.5160    5.7840  -15.7280 C   0  0  0  0  0  0  0  0  0  0  0  0
   -5.4400    7.5150  -15.5700 O   0  0  0  0  0  0  0  0  0  0  0  0
   -5.8490    5.5780  -17.2750 C   0  0  0  0  0  0  0  0  0  0  0  0
   -5.8260    5.2520  -14.6810 O   0  0  0  0  0  0  0  0  0  0  0  0
   -4.9330    5.5860  -18.2910 C   0  0  0  0  0  0  0  0  0  0  0  0
   -5.2830    5.1320  -19.5510 C   0  0  0  0  0  0  0  0  0  0  0  0
   -6.5400    4.6740  -19.8010 C   0  0  0  0  0  0  0  0  0  0  0  0
   -7.5230    4.6650  -18.7830 C   0  0  0  0  0  0  0  0  0  0  0  0
   -8.8420    4.1950  -18.9640 C   0  0  0  0  0  0  0  0  0  0  0  0
   -9.7190    4.2090  -17.9240 C   0  0  0  0  0  0  0  0  0  0  0  0
   -9.2950    4.6920  -16.7010 C   0  0  0  0  0  0  0  0  0  0  0  0
   -7.1850    5.1330  -17.4910 C   0  0  0  0  0  0  0  0  0  0  0  0
   -5.2420    6.0970  -15.6850 S   0  0  0  0  0  0  0  0  0  0  0  0
  -21.9740    6.2810    0.5010 N   0  0  0  0  0  0  0  0  0  0  0  0
  -24.1890    5.2520    1.0050 C   0  0  0  0  0  0  0  0  0  0  0  0
  -24.0770    2.6910    0.6260 O   0  0  0  0  0  0  0  0  0  0  0  0
  -21.7700    3.8830    0.5900 C   0  0  0  0  0  0  0  0  0  0  0  0
  -23.2020    3.6010    2.7430 O   0  0  0  0  0  0  0  0  0  0  0  0
  -21.0440    2.7400    0.3990 C   0  0  0  0  0  0  0  0  0  0  0  0
  -19.7370    2.8070   -0.0550 C   0  0  0  0  0  0  0  0  0  0  0  0
  -19.1690    4.0090   -0.3620 C   0  0  0  0  0  0  0  0  0  0  0  0
  -19.8950    5.2110   -0.1980 C   0  0  0  0  0  0  0  0  0  0  0  0
  -19.3640    6.4880   -0.4540 C   0  0  0  0  0  0  0  0  0  0  0  0
  -20.1190    7.5970   -0.2290 C   0  0  0  0  0  0  0  0  0  0  0  0
  -21.4120    7.4440    0.2350 C   0  0  0  0  0  0  0  0  0  0  0  0
  -21.2230    5.1600    0.2910 C   0  0  0  0  0  0  0  0  0  0  0  0
  -23.3770    3.7370    1.3250 S   0  0  0  0  0  0  0  0  0  0  0  0
  1 12  4  0  0  0  0
  4  6  4  0  0  0  0
  4 13  4  0  0  0  0
  5 14  2  0  0  0  0
  6  7  4  0  0  0  0
  7  8  4  0  0  0  0
  8  9  4  0  0  0  0
  9 10  4  0  0  0  0
 10 11  4  0  0  0  0
 11 12  4  0  0  0  0
  1 13  4  0  0  0  0
  9 13  4  0  0  0  0
  2 14  1  0  0  0  0
  3 14  2  0  0  0  0
  4 14  1  0  0  0  0
 15 26  4  0  0  0  0
 18 20  4  0  0  0  0
 18 27  4  0  0  0  0
 19 28  2  0  0  0  0
 20 21  4  0  0  0  0
 21 22  4  0  0  0  0
 22 23  4  0  0  0  0
 23 24  4  0  0  0  0
 24 25  4  0  0  0  0
 25 26  4  0  0  0  0
 15 27  4  0  0  0  0
 23 27  4  0  0  0  0
 16 28  1  0  0  0  0
 17 28  2  0  0  0  0
 18 28  1  0  0  0  0
M  END
>  <pdb_header>
HEADER    ----                                    18-MAY-23                     
TITLE     ---                                                                   
EXPDTA    X-RAY DIFFRACTION                                                     
REMARK --------------------- added by autoBUSTER ---------------------------------START
REMARK run at   = Fri Sep 29 18:17:30 BST 2023
REMARK     in   = /dls/labxchem/data/lb32627/lb32627-65/processing/analysis/model_building/XX01ZVNS2B-x0773
REMARK     user = kyf22269
REMARK     cmd  = \
REMARK            /dls_sw/apps/GPhL/BUSTER/20230726/autoBUSTER/bin/linux64/refine \
REMARK            -p \
REMARK            /dls/labxchem/data/lb32627/lb32627-65/processing/analysis/model_building/XX01ZVNS2B-x0773/cootOut/Refi
REMARK            -m \
REMARK            /dls/labxchem/data/lb32627/lb32627-65/processing/analysis/model_building/XX01ZVNS2B-x0773/XX01ZVNS2B-x
REMARK            -l \
REMARK            /dls/labxchem/data/lb32627/lb32627-65/processing/analysis/model_building/XX01ZVNS2B-x0773/Z1269220427.
REMARK            -autoncs -M TLSbasic -d Refine_7
REMARK Files used:
REMARK   PDB              = Refine_7/pdbchk.pdb
REMARK   MTZ              = /dls/labxchem/data/lb32627/lb32627-65/processing/analysis/model_building/XX01ZVNS2B-x0773/XX
REMARK output written to subdirectory = Refine_7
REMARK best refinement for F,SIGF with R/Rfree 0.2341/0.2766
REMARK header records are copied from input PDB file (apart from REMARK 3!)
REMARK --------------------- added by autoBUSTER -----------------------------------END
REMARK --------------------- added by autoBUSTER -------------------------------
REMARK run at   = Thu Jun 15 19:05:07 BST 2023                                  
REMARK     in   = /dls/labxchem/data/lb32627/lb32627-65/processing/analysis/mode
REMARK     user = xau79897                                                      
REMARK     cmd  = \                                                             
REMARK            /dls_sw/apps/GPhL/BUSTER/20230614/autoBUSTER/bin/linux64/refin
REMARK            -p \                                                          
REMARK            /dls/labxchem/data/lb32627/lb32627-65/processing/analysis/mode
REMARK            -m \                                                          
REMARK            /dls/labxchem/data/lb32627/lb32627-65/processing/analysis/mode
REMARK            -l \                                                          
REMARK            /dls/labxchem/data/lb32627/lb32627-65/processing/analysis/mode
REMARK            -autoncs -M TLSbasic StopOnGellySanityCheckError=no -d \      
REMARK            Refine_6                                                      
REMARK Files used:                                                              
REMARK   PDB              = Refine_6/pdbchk.pdb                                 
REMARK   MTZ              = /dls/labxchem/data/lb32627/lb32627-65/processing/ana
REMARK output written to subdirectory = Refine_6                                
REMARK best refinement for F,SIGF with R/Rfree 0.2349/0.2758                    
REMARK header records are copied from input PDB file (apart from REMARK 3!)     
REMARK --------------------- added by autoBUSTER -------------------------------
REMARK --------------------- added by autoBUSTER -------------------------------
REMARK run at   = Tue May 30 13:53:29 BST 2023                                  
REMARK     in   = /dls/labxchem/data/lb32627/lb32627-65/processing/analysis/mode
REMARK     user = xau79897                                                      
REMARK     cmd  = \                                                             
REMARK            /dls_sw/apps/GPhL/BUSTER/20230217/autoBUSTER/bin/linux64/refin
REMARK            -p \                                                          
REMARK            /dls/labxchem/data/lb32627/lb32627-65/processing/analysis/mode
REMARK            -m \                                                          
REMARK            /dls/labxchem/data/lb32627/lb32627-65/processing/analysis/mode
REMARK            -l \                                                          
REMARK            /dls/labxchem/data/lb32627/lb32627-65/processing/analysis/mode
REMARK            -autoncs -M TLSbasic -WAT -B user -Gelly gelly.dat \          
REMARK            StopOnGellySanityCheckError=no -d Refine_5                    
REMARK Files used:                                                              
REMARK   PDB              = Refine_5/pdbchk.pdb                                 
REMARK   MTZ              = /dls/labxchem/data/lb32627/lb32627-65/processing/ana
REMARK   Gelly commands       = /dls/labxchem/data/lb32627/lb32627-65/processing
REMARK output written to subdirectory = Refine_5                                
REMARK best refinement for F,SIGF with R/Rfree 0.2368/0.2809                    
REMARK header records are copied from input PDB file (apart from REMARK 3!)     
REMARK --------------------- added by autoBUSTER -------------------------------
REMARK --------------------- added by autoBUSTER -------------------------------
REMARK run at   = Tue May 23 17:24:08 BST 2023                                  
REMARK     in   = /dls/labxchem/data/lb32627/lb32627-65/processing/analysis/mode
REMARK     user = xau79897                                                      
REMARK     cmd  = \                                                             
REMARK            /dls_sw/apps/GPhL/BUSTER/20230217/autoBUSTER/bin/linux64/refin
REMARK            -p \                                                          
REMARK            /dls/labxchem/data/lb32627/lb32627-65/processing/analysis/mode
REMARK            -m \                                                          
REMARK            /dls/labxchem/data/lb32627/lb32627-65/processing/analysis/mode
REMARK            -l \                                                          
REMARK            /dls/labxchem/data/lb32627/lb32627-65/processing/analysis/mode
REMARK            -autoncs -M TLSbasic -d Refine_4                              
REMARK Files used:                                                              
REMARK   PDB              = Refine_4/pdbchk.pdb                                 
REMARK   MTZ              = /dls/labxchem/data/lb32627/lb32627-65/processing/ana
REMARK output written to subdirectory = Refine_4                                
REMARK best refinement for F,SIGF with R/Rfree 0.2374/0.2697                    
REMARK header records are copied from input PDB file (apart from REMARK 3!)     
REMARK --------------------- added by autoBUSTER -------------------------------
REMARK --------------------- added by autoBUSTER -------------------------------
REMARK run at   = Tue May 23 17:13:23 BST 2023                                  
REMARK     in   = /dls/labxchem/data/lb32627/lb32627-65/processing/analysis/mode
REMARK     user = xau79897                                                      
REMARK     cmd  = \                                                             
REMARK            /dls_sw/apps/GPhL/BUSTER/20230217/autoBUSTER/bin/linux64/refin
REMARK            -p \                                                          
REMARK            /dls/labxchem/data/lb32627/lb32627-65/processing/analysis/mode
REMARK            -m \                                                          
REMARK            /dls/labxchem/data/lb32627/lb32627-65/processing/analysis/mode
REMARK            -l \                                                          
REMARK            /dls/labxchem/data/lb32627/lb32627-65/processing/analysis/mode
REMARK            -autoncs -M TLSbasic -d Refine_3                              
REMARK Files used:                                                              
REMARK   PDB              = Refine_3/pdbchk.pdb                                 
REMARK   MTZ              = /dls/labxchem/data/lb32627/lb32627-65/processing/ana
REMARK output written to subdirectory = Refine_3                                
REMARK best refinement for F,SIGF with R/Rfree 0.2372/0.2688                    
REMARK header records are copied from input PDB file (apart from REMARK 3!)     
REMARK --------------------- added by autoBUSTER -------------------------------
REMARK   2                                                            
REMARK   2 RESOLUTION.    1.71 ANGSTROMS.
REMARK   3
REMARK   3 REFINEMENT.
REMARK   3   PROGRAM     : BUSTER 2.10.4 (26-JUL-2023)
REMARK   3   AUTHORS     : BRICOGNE,BLANC,BRANDL,FLENSBURG,KELLER,
REMARK   3               : PACIOREK,ROVERSI,SHARFF,SMART,VONRHEIN,WOMACK;
REMARK   3               : MATTHEWS,TEN EYCK,TRONRUD
REMARK   3
REMARK   3  DATA USED IN REFINEMENT.
REMARK   3   RESOLUTION RANGE HIGH (ANGSTROMS) : 1.709
REMARK   3   RESOLUTION RANGE LOW  (ANGSTROMS) : 25.09
REMARK   3   DATA CUTOFF            (SIGMA(F)) : 0.000
REMARK   3   COMPLETENESS FOR RANGE        (%) : 94.9
REMARK   3   NUMBER OF REFLECTIONS             : 21704
REMARK   3
REMARK   3  FIT TO DATA USED IN REFINEMENT.
REMARK   3   CROSS-VALIDATION METHOD          : THROUGHOUT
REMARK   3   FREE R VALUE TEST SET SELECTION  : RANDOM
REMARK   3   R VALUE     (WORKING + TEST SET) : 0.2362
REMARK   3   R VALUE            (WORKING SET) : 0.2341
REMARK   3   FREE R VALUE                     : 0.2766
REMARK   3   FREE R VALUE TEST SET SIZE   (%) : 5.050
REMARK   3   FREE R VALUE TEST SET COUNT      : 1095
REMARK   3   ESTIMATED ERROR OF FREE R VALUE  : NULL
REMARK   3
REMARK   3  FIT IN THE HIGHEST RESOLUTION BIN.
REMARK   3   TOTAL NUMBER OF BINS USED           : 51
REMARK   3   BIN RESOLUTION RANGE HIGH       (A) : 1.71
REMARK   3   BIN RESOLUTION RANGE LOW        (A) : 1.75
REMARK   3   BIN COMPLETENESS (WORKING+TEST) (%) : 30.40
REMARK   3   REFLECTIONS IN BIN   (WORKING+TEST) : 435
REMARK   3   BIN R VALUE          (WORKING+TEST) : 0.5359
REMARK   3   REFLECTIONS IN BIN    (WORKING SET) : 415
REMARK   3   BIN R VALUE           (WORKING SET) : 0.5369
REMARK   3   BIN FREE R VALUE                    : 0.5137
REMARK   3   BIN FREE R VALUE TEST SET SIZE  (%) : 4.60
REMARK   3   BIN FREE R VALUE TEST SET COUNT     : 20
REMARK   3   ESTIMATED ERROR OF BIN FREE R VALUE : NULL
REMARK   3
REMARK   3  NUMBER OF NON-HYDROGEN ATOMS USED IN REFINEMENT.
REMARK   3   PROTEIN ATOMS            : 1476
REMARK   3   NUCLEIC ACID ATOMS       : 0
REMARK   3   HETEROGEN ATOMS          : 36
REMARK   3   SOLVENT ATOMS            : 94
REMARK   3
REMARK   3  B VALUES.
REMARK   3   FROM WILSON PLOT           (A**2) : 38.85
REMARK   3   MEAN B VALUE      (OVERALL, A**2) : 53.93
REMARK   3   OVERALL ANISOTROPIC B VALUE.
REMARK   3    B11 (A**2) : -6.49910
REMARK   3    B22 (A**2) : -6.49910
REMARK   3    B33 (A**2) : 12.99830
REMARK   3    B12 (A**2) : 0.00000
REMARK   3    B13 (A**2) : 0.00000
REMARK   3    B23 (A**2) : 0.00000
REMARK   3
REMARK   3  ESTIMATED COORDINATE ERROR.
REMARK   3   ESD FROM LUZZATI PLOT                    (A) : 0.34
REMARK   3   DPI (BLOW EQ-10) BASED ON R VALUE        (A) : 0.141
REMARK   3   DPI (BLOW EQ-9) BASED ON FREE R VALUE    (A) : 0.136
REMARK   3   DPI (CRUICKSHANK) BASED ON R VALUE       (A) : 0.132
REMARK   3   DPI (CRUICKSHANK) BASED ON FREE R VALUE  (A) : 0.131
REMARK   3
REMARK   3   REFERENCES: BLOW, D. (2002) ACTA CRYST D58, 792-797
REMARK   3               CRUICKSHANK, D.W.J. (1999) ACTA CRYST D55, 583-601
REMARK   3
REMARK   3  CORRELATION COEFFICIENTS.
REMARK   3   CORRELATION COEFFICIENT FO-FC      : 0.946
REMARK   3   CORRELATION COEFFICIENT FO-FC FREE : 0.927
REMARK   3
REMARK   3  X-RAY WEIGHT : 7.07
REMARK   3
REMARK   3  GEOMETRY FUNCTION.                                                  
REMARK   3   RESTRAINT LIBRARIES.                                               
REMARK   3    NUMBER OF LIBRARIES USED :   9                                    
REMARK   3    LIBRARY  1 : protgeo_eh99.dat (V1.6.4.20) 20220523  STANDARD      
REMARK   3                 AMINO ACID DICTIONARY. BONDS AND ANGLES FROM         
REMARK   3                 ENGH AND HUBER EH99. OTHER VALUES BASED ON           
REMARK   3                 PREVIOUS TNT OR TAKEN FROM CCP4. INCLUDES            
REMARK   3                 HYDROGEN ATOMS.                                      
REMARK   3    LIBRARY  2 : exoticaa.dat (V1.3.4.16) 20220523  COLLECTION        
REMARK   3                 OF NON-STANDARD AMINO ACIDS, MAINLY EH91             
REMARK   3                 WITHOUT IDEAL DISTANCE INFO                          
REMARK   3    LIBRARY  3 : nuclgeo.dat (V1.13.4.9) 20221011                     
REMARK   3    LIBRARY  4 : bcorrel.dat (V1.15.10.2) 20190616                    
REMARK   3    LIBRARY  5 : contact.dat (V1.15.12.10) 20191121                   
REMARK   3    LIBRARY  6 : idealdist_contact.dat (V1.3.4.14) 20230724           
REMARK   3                 IDEAL-DISTANCE CONTACT TERM DATA AS USED IN          
REMARK   3                 PROLSQ. VALUES USED HERE ARE BASEd ON DATA           
REMARK   3                 HARVESTING OF PDB AS OF 20190109                     
REMARK   3    LIBRARY  7 : restraints for LIG (unknown) from cif                
REMARK   3                 dictionary Z1269220427.cif; generated by GRADE       
REMARK   3                 1.2.21 (Feb 03 2022) from SMILES                     
REMARK   3                 CS(=O)(=O)c1cccc2cccnc12 using MOGUL                 
REMARK   3                 1.8.5(274361), CSD as541be, with quantum             
REMARK   3                 mechanics RM1                                        
REMARK   3    LIBRARY  8 : restraints for DMS (DIMETHYL SULFOXIDE) from         
REMARK   3                 cif dictionary DMS.cif; generated by grade2          
REMARK   3                 version 1.1.0a7 from                                 
REMARK   3                 PDB_chemical_components_definition_file              
REMARK   3                 ftp://ftp.ebi.ac.uk/pub/databases/msd/pdbechem_v     
REMARK   3                 2/D/DMS/DMS.cif using RDKit 2021.03.4                
REMARK   3                 ((DatabaseID PDB-DMS))                               
REMARK   3    LIBRARY  9 : assume.dat (V1.9.4.3) 20221011                       
REMARK   3                                                                      
REMARK   3   NUMBER OF GEOMETRIC FUNCTION TERMS DEFINED : 15                    
REMARK   3   TERM                          COUNT    WEIGHT   FUNCTION.          
REMARK   3    BOND LENGTHS              :   1555 ;   2.00 ;  HARMONIC           
REMARK   3    BOND ANGLES               :   2112 ;   2.00 ;  HARMONIC           
REMARK   3    TORSION ANGLES            :    522 ;   2.00 ;  SINUSOIDAL         
REMARK   3    TRIGONAL CARBON PLANES    :   NULL ;   NULL ;  NULL               
REMARK   3    GENERAL PLANES            :    291 ;   5.00 ;  HARMONIC           
REMARK   3    ISOTROPIC THERMAL FACTORS :   1555 ;  10.00 ;  HARMONIC           
REMARK   3    BAD NON-BONDED CONTACTS   :   NULL ;   NULL ;  NULL               
REMARK   3    IMPROPER TORSIONS         :   NULL ;   NULL ;  NULL               
REMARK   3    PSEUDOROTATION ANGLES     :   NULL ;   NULL ;  NULL               
REMARK   3    CHIRAL IMPROPER TORSION   :    192 ;   5.00 ;  SEMIHARMONIC       
REMARK   3    SUM OF OCCUPANCIES        :   NULL ;   NULL ;  NULL               
REMARK   3    UTILITY DISTANCES         :   NULL ;   NULL ;  NULL               
REMARK   3    UTILITY ANGLES            :   NULL ;   NULL ;  NULL               
REMARK   3    UTILITY TORSION           :   NULL ;   NULL ;  NULL               
REMARK   3    IDEAL-DIST CONTACT TERM   :   1229 ;   4.00 ;  SEMIHARMONIC       
REMARK   3                                                                      
REMARK   3   RMS DEVIATIONS FROM IDEAL VALUES.                                  
REMARK   3   BOND LENGTHS                       (A) : 0.009                     
REMARK   3   BOND ANGLES                  (DEGREES) : 0.98                      
REMARK   3   PEPTIDE OMEGA TORSION ANGLES (DEGREES) : 3.74                      
REMARK   3   OTHER TORSION ANGLES         (DEGREES) : 15.92                     
REMARK   3                                                                      
REMARK   3   SIMILARITY.                                                        
REMARK   3    NCS.                                                              
REMARK   3     NCS METHOD: NONE                                                 
REMARK   3    TARGET RESTRAINTS.                                                
REMARK   3     TARGET REPRESENTATION : NONE                                     
REMARK   3     TARGET STRUCTURE : NULL                                          
REMARK   3                                                                      
REMARK   3  TLS DETAILS.                                                        
REMARK   3   NUMBER OF TLS GROUPS  :            2                               
REMARK   3                                                                      
REMARK   3   TLS GROUP :            1                                           
REMARK   3    SET : { A|* }                                                     
REMARK   3    ORIGIN FOR THE GROUP (A):  -13.9909   -1.3687  -19.5426           
REMARK   3    T TENSOR                                                          
REMARK   3     T11:   -0.0503 T22:   -0.0474                                    
REMARK   3     T33:   -0.1582 T12:    0.1086                                    
REMARK   3     T13:    0.1081 T23:    0.0892                                    
REMARK   3    L TENSOR                                                          
REMARK   3     L11:    3.8473 L22:    3.6849                                    
REMARK   3     L33:    4.4244 L12:   -2.0137                                    
REMARK   3     L13:    0.9572 L23:    0.8051                                    
REMARK   3    S TENSOR                                                          
REMARK   3     S11:    0.4439 S12:    0.4696 S13:    0.1930                     
REMARK   3     S21:   -0.5366 S22:   -0.3109 S23:   -0.2507                     
REMARK   3     S31:   -0.1297 S32:    0.6538 S33:   -0.1330                     
REMARK   3                                                                      
REMARK   3   TLS GROUP :            2                                           
REMARK   3    SET : { B|* }                                                     
REMARK   3    ORIGIN FOR THE GROUP (A):  -18.5873    1.2706  -15.7078           
REMARK   3    T TENSOR                                                          
REMARK   3     T11:    0.0616 T22:   -0.0148                                    
REMARK   3     T33:   -0.0171 T12:    0.1250                                    
REMARK   3     T13:    0.0259 T23:    0.0312                                    
REMARK   3    L TENSOR                                                          
REMARK   3     L11:    1.7546 L22:    1.4443                                    
REMARK   3     L33:    2.4920 L12:   -1.0884                                    
REMARK   3     L13:    0.9429 L23:    0.0126                                    
REMARK   3    S TENSOR                                                          
REMARK   3     S11:    0.2852 S12:    0.1378 S13:    0.1219                     
REMARK   3     S21:   -0.1385 S22:   -0.2691 S23:    0.0552                     
REMARK   3     S31:   -0.0282 S32:    0.1863 S33:   -0.0162                     
REMARK   3                                                                      
REMARK   3  REFINEMENT NOTES.                                                   
REMARK   3   NUMBER OF REFINEMENT NOTES :   1                                   
REMARK   3   NOTE   1 : IDEAL-DIST CONTACT TERM CONTACT SETUP. ALL ATOMS        
REMARK   3               HAVE CCP4 ATOM TYPE FROM LIBRARY                       
REMARK   3
REMARK   3  OTHER REFINEMENT REMARKS: NULL
REMARK   3
REMARK 290                                                            
REMARK 290 CRYSTALLOGRAPHIC SYMMETRY                                  
REMARK 290 SYMMETRY OPERATORS FOR SPACE GROUP: P 43 2 2               
REMARK 290                                                            
REMARK 290      SYMOP   SYMMETRY                                      
REMARK 290     NNNMMM   OPERATOR                                      
REMARK 290       1555   X,Y,Z                                         
REMARK 290       2555   -X,-Y,1/2+Z                                   
REMARK 290       3555   -Y,X,3/4+Z                                    
REMARK 290       4555   Y,-X,1/4+Z                                    
REMARK 290       5555   -X,Y,-Z                                       
REMARK 290       6555   X,-Y,1/2-Z                                    
REMARK 290       7555   Y,X,1/4-Z                                     
REMARK 290       8555   -Y,-X,3/4-Z                                   
REMARK 290                                                            
REMARK 290     WHERE NNN -> OPERATOR NUMBER                           
REMARK 290           MMM -> TRANSLATION VECTOR                        
REMARK 290                                                            
REMARK 290 CRYSTALLOGRAPHIC SYMMETRY TRANSFORMATIONS                  
REMARK 290 THE FOLLOWING TRANSFORMATIONS OPERATE ON THE ATOM/HETATM   
REMARK 290 RECORDS IN THIS ENTRY TO PRODUCE CRYSTALLOGRAPHICALLY      
REMARK 290 RELATED MOLECULES.                                         
REMARK 290   SMTRY1   1  1.000000  0.000000  0.000000        0.00000
REMARK 290   SMTRY2   1  0.000000  1.000000  0.000000        0.00000
REMARK 290   SMTRY3   1  0.000000  0.000000  1.000000        0.00000
REMARK 290   SMTRY1   2 -1.000000  0.000000  0.000000        0.00000
REMARK 290   SMTRY2   2  0.000000 -1.000000  0.000000        0.00000
REMARK 290   SMTRY3   2  0.000000  0.000000  1.000000      108.65600
REMARK 290   SMTRY1   3  0.000000 -1.000000  0.000000        0.00000
REMARK 290   SMTRY2   3  1.000000  0.000000  0.000000        0.00000
REMARK 290   SMTRY3   3  0.000000  0.000000  1.000000      162.98400
REMARK 290   SMTRY1   4  0.000000  1.000000  0.000000        0.00000
REMARK 290   SMTRY2   4 -1.000000  0.000000  0.000000        0.00000
REMARK 290   SMTRY3   4  0.000000  0.000000  1.000000       54.32800
REMARK 290   SMTRY1   5 -1.000000  0.000000  0.000000        0.00000
REMARK 290   SMTRY2   5  0.000000  1.000000  0.000000        0.00000
REMARK 290   SMTRY3   5  0.000000  0.000000 -1.000000        0.00000
REMARK 290   SMTRY1   6  1.000000  0.000000  0.000000        0.00000
REMARK 290   SMTRY2   6  0.000000 -1.000000  0.000000        0.00000
REMARK 290   SMTRY3   6  0.000000  0.000000 -1.000000      108.65600
REMARK 290   SMTRY1   7  0.000000  1.000000  0.000000        0.00000
REMARK 290   SMTRY2   7  1.000000  0.000000  0.000000        0.00000
REMARK 290   SMTRY3   7  0.000000  0.000000 -1.000000       54.32800
REMARK 290   SMTRY1   8  0.000000 -1.000000  0.000000        0.00000
REMARK 290   SMTRY2   8 -1.000000  0.000000  0.000000        0.00000
REMARK 290   SMTRY3   8  0.000000  0.000000 -1.000000      162.98400
REMARK 290                                                            
REMARK 290 REMARK: NULL                                               
CRYST1   42.605   42.605  217.312  90.00  90.00  90.00 P 43 2 2                 


$$$$
Zx0773a_ligand
  PyMOL3.0          3D                             0

 14 15  0  0  0  0  0  0  0  0999 V2000
   -3.5160    5.7840  -15.7280 C   0  0  0  0  0  0  0  0  0  0  0  0
   -8.0790    5.1490  -16.4610 N   0  0  0  0  0  0  0  0  0  0  0  0
   -5.8260    5.2520  -14.6810 O   0  0  0  0  0  0  0  0  0  0  0  0
   -5.2420    6.0970  -15.6850 S   0  0  0  0  0  0  0  0  0  0  0  0
   -5.8490    5.5780  -17.2750 C   0  0  0  0  0  0  0  0  0  0  0  0
   -5.4400    7.5150  -15.5700 O   0  0  0  0  0  0  0  0  0  0  0  0
   -7.1850    5.1330  -17.4910 C   0  0  0  0  0  0  0  0  0  0  0  0
   -9.2950    4.6920  -16.7010 C   0  0  0  0  0  0  0  0  0  0  0  0
   -9.7190    4.2090  -17.9240 C   0  0  0  0  0  0  0  0  0  0  0  0
   -8.8420    4.1950  -18.9640 C   0  0  0  0  0  0  0  0  0  0  0  0
   -7.5230    4.6650  -18.7830 C   0  0  0  0  0  0  0  0  0  0  0  0
   -6.5400    4.6740  -19.8010 C   0  0  0  0  0  0  0  0  0  0  0  0
   -5.2830    5.1320  -19.5510 C   0  0  0  0  0  0  0  0  0  0  0  0
   -4.9330    5.5860  -18.2910 C   0  0  0  0  0  0  0  0  0  0  0  0
  2  8  4  0  0  0  0
  3  4  2  0  0  0  0
  1  4  1  0  0  0  0
  4  5  1  0  0  0  0
  4  6  2  0  0  0  0
  5  7  4  0  0  0  0
  5 14  4  0  0  0  0
  2  7  4  0  0  0  0
  7 11  4  0  0  0  0
  8  9  4  0  0  0  0
  9 10  4  0  0  0  0
 10 11  4  0  0  0  0
 11 12  4  0  0  0  0
 12 13  4  0  0  0  0
 13 14  4  0  0  0  0
M  END
>  <pdb_header>
COMPND    XX01ZVNS2B-x0773_B_301_XX01ZVNS2B-x1291+B+301+1


$$$$
Zx0773b
  PyMOL3.0          3D                             0

 28 30  0  0  0  0  0  0  0  0999 V2000
   -8.4420    5.7450  -16.8080 N   0  0  0  0  0  0  0  0  0  0  0  0
   -3.8690    6.4250  -16.1830 C   0  0  0  0  0  0  0  0  0  0  0  0
   -5.8010    8.1480  -16.0280 O   0  0  0  0  0  0  0  0  0  0  0  0
   -6.2310    6.1680  -17.6770 C   0  0  0  0  0  0  0  0  0  0  0  0
   -6.1540    5.9050  -15.0770 O   0  0  0  0  0  0  0  0  0  0  0  0
   -5.3360    6.1560  -18.7120 C   0  0  0  0  0  0  0  0  0  0  0  0
   -5.7080    5.6700  -19.9530 C   0  0  0  0  0  0  0  0  0  0  0  0
   -6.9670    5.1980  -20.1660 C   0  0  0  0  0  0  0  0  0  0  0  0
   -7.9290    5.2080  -19.1290 C   0  0  0  0  0  0  0  0  0  0  0  0
   -9.2480    4.7260  -19.2720 C   0  0  0  0  0  0  0  0  0  0  0  0
  -10.1040    4.7600  -18.2150 C   0  0  0  0  0  0  0  0  0  0  0  0
   -9.6590    5.2750  -17.0130 C   0  0  0  0  0  0  0  0  0  0  0  0
   -7.5680    5.7090  -17.8560 C   0  0  0  0  0  0  0  0  0  0  0  0
   -5.5960    6.7290  -16.1130 S   0  0  0  0  0  0  0  0  0  0  0  0
  -22.0000    7.2060    0.3990 N   0  0  0  0  0  0  0  0  0  0  0  0
  -24.1980    6.1760    0.9730 C   0  0  0  0  0  0  0  0  0  0  0  0
  -24.0770    3.6070    0.6530 O   0  0  0  0  0  0  0  0  0  0  0  0
  -21.7790    4.8120    0.5420 C   0  0  0  0  0  0  0  0  0  0  0  0
  -23.1650    4.5740    2.7300 O   0  0  0  0  0  0  0  0  0  0  0  0
  -21.0490    3.6690    0.3640 C   0  0  0  0  0  0  0  0  0  0  0  0
  -19.7520    3.7330   -0.1180 C   0  0  0  0  0  0  0  0  0  0  0  0
  -19.1980    4.9300   -0.4650 C   0  0  0  0  0  0  0  0  0  0  0  0
  -19.9290    6.1320   -0.3160 C   0  0  0  0  0  0  0  0  0  0  0  0
  -19.4110    7.4050   -0.6130 C   0  0  0  0  0  0  0  0  0  0  0  0
  -20.1690    8.5150   -0.4000 C   0  0  0  0  0  0  0  0  0  0  0  0
  -21.4510    8.3650    0.0940 C   0  0  0  0  0  0  0  0  0  0  0  0
  -21.2460    6.0850    0.2010 C   0  0  0  0  0  0  0  0  0  0  0  0
  -23.3700    4.6740    1.3130 S   0  0  0  0  0  0  0  0  0  0  0  0
  1 12  4  0  0  0  0
  4  6  4  0  0  0  0
  4 13  4  0  0  0  0
  5 14  2  0  0  0  0
  6  7  4  0  0  0  0
  7  8  4  0  0  0  0
  8  9  4  0  0  0  0
  9 10  4  0  0  0  0
 10 11  4  0  0  0  0
 11 12  4  0  0  0  0
  1 13  4  0  0  0  0
  9 13  4  0  0  0  0
  2 14  1  0  0  0  0
  3 14  2  0  0  0  0
  4 14  1  0  0  0  0
 15 26  4  0  0  0  0
 18 20  4  0  0  0  0
 18 27  4  0  0  0  0
 19 28  2  0  0  0  0
 20 21  4  0  0  0  0
 21 22  4  0  0  0  0
 22 23  4  0  0  0  0
 23 24  4  0  0  0  0
 24 25  4  0  0  0  0
 25 26  4  0  0  0  0
 15 27  4  0  0  0  0
 23 27  4  0  0  0  0
 16 28  1  0  0  0  0
 17 28  2  0  0  0  0
 18 28  1  0  0  0  0
M  END
>  <pdb_header>
HEADER    ----                                    18-MAY-23                     
TITLE     ---                                                                   
EXPDTA    X-RAY DIFFRACTION                                                     
REMARK --------------------- added by autoBUSTER ---------------------------------START
REMARK run at   = Fri Sep 29 18:17:30 BST 2023
REMARK     in   = /dls/labxchem/data/lb32627/lb32627-65/processing/analysis/model_building/XX01ZVNS2B-x0773
REMARK     user = kyf22269
REMARK     cmd  = \
REMARK            /dls_sw/apps/GPhL/BUSTER/20230726/autoBUSTER/bin/linux64/refine \
REMARK            -p \
REMARK            /dls/labxchem/data/lb32627/lb32627-65/processing/analysis/model_building/XX01ZVNS2B-x0773/cootOut/Refi
REMARK            -m \
REMARK            /dls/labxchem/data/lb32627/lb32627-65/processing/analysis/model_building/XX01ZVNS2B-x0773/XX01ZVNS2B-x
REMARK            -l \
REMARK            /dls/labxchem/data/lb32627/lb32627-65/processing/analysis/model_building/XX01ZVNS2B-x0773/Z1269220427.
REMARK            -autoncs -M TLSbasic -d Refine_7
REMARK Files used:
REMARK   PDB              = Refine_7/pdbchk.pdb
REMARK   MTZ              = /dls/labxchem/data/lb32627/lb32627-65/processing/analysis/model_building/XX01ZVNS2B-x0773/XX
REMARK output written to subdirectory = Refine_7
REMARK best refinement for F,SIGF with R/Rfree 0.2341/0.2766
REMARK header records are copied from input PDB file (apart from REMARK 3!)
REMARK --------------------- added by autoBUSTER -----------------------------------END
REMARK --------------------- added by autoBUSTER -------------------------------
REMARK run at   = Thu Jun 15 19:05:07 BST 2023                                  
REMARK     in   = /dls/labxchem/data/lb32627/lb32627-65/processing/analysis/mode
REMARK     user = xau79897                                                      
REMARK     cmd  = \                                                             
REMARK            /dls_sw/apps/GPhL/BUSTER/20230614/autoBUSTER/bin/linux64/refin
REMARK            -p \                                                          
REMARK            /dls/labxchem/data/lb32627/lb32627-65/processing/analysis/mode
REMARK            -m \                                                          
REMARK            /dls/labxchem/data/lb32627/lb32627-65/processing/analysis/mode
REMARK            -l \                                                          
REMARK            /dls/labxchem/data/lb32627/lb32627-65/processing/analysis/mode
REMARK            -autoncs -M TLSbasic StopOnGellySanityCheckError=no -d \      
REMARK            Refine_6                                                      
REMARK Files used:                                                              
REMARK   PDB              = Refine_6/pdbchk.pdb                                 
REMARK   MTZ              = /dls/labxchem/data/lb32627/lb32627-65/processing/ana
REMARK output written to subdirectory = Refine_6                                
REMARK best refinement for F,SIGF with R/Rfree 0.2349/0.2758                    
REMARK header records are copied from input PDB file (apart from REMARK 3!)     
REMARK --------------------- added by autoBUSTER -------------------------------
REMARK --------------------- added by autoBUSTER -------------------------------
REMARK run at   = Tue May 30 13:53:29 BST 2023                                  
REMARK     in   = /dls/labxchem/data/lb32627/lb32627-65/processing/analysis/mode
REMARK     user = xau79897                                                      
REMARK     cmd  = \                                                             
REMARK            /dls_sw/apps/GPhL/BUSTER/20230217/autoBUSTER/bin/linux64/refin
REMARK            -p \                                                          
REMARK            /dls/labxchem/data/lb32627/lb32627-65/processing/analysis/mode
REMARK            -m \                                                          
REMARK            /dls/labxchem/data/lb32627/lb32627-65/processing/analysis/mode
REMARK            -l \                                                          
REMARK            /dls/labxchem/data/lb32627/lb32627-65/processing/analysis/mode
REMARK            -autoncs -M TLSbasic -WAT -B user -Gelly gelly.dat \          
REMARK            StopOnGellySanityCheckError=no -d Refine_5                    
REMARK Files used:                                                              
REMARK   PDB              = Refine_5/pdbchk.pdb                                 
REMARK   MTZ              = /dls/labxchem/data/lb32627/lb32627-65/processing/ana
REMARK   Gelly commands       = /dls/labxchem/data/lb32627/lb32627-65/processing
REMARK output written to subdirectory = Refine_5                                
REMARK best refinement for F,SIGF with R/Rfree 0.2368/0.2809                    
REMARK header records are copied from input PDB file (apart from REMARK 3!)     
REMARK --------------------- added by autoBUSTER -------------------------------
REMARK --------------------- added by autoBUSTER -------------------------------
REMARK run at   = Tue May 23 17:24:08 BST 2023                                  
REMARK     in   = /dls/labxchem/data/lb32627/lb32627-65/processing/analysis/mode
REMARK     user = xau79897                                                      
REMARK     cmd  = \                                                             
REMARK            /dls_sw/apps/GPhL/BUSTER/20230217/autoBUSTER/bin/linux64/refin
REMARK            -p \                                                          
REMARK            /dls/labxchem/data/lb32627/lb32627-65/processing/analysis/mode
REMARK            -m \                                                          
REMARK            /dls/labxchem/data/lb32627/lb32627-65/processing/analysis/mode
REMARK            -l \                                                          
REMARK            /dls/labxchem/data/lb32627/lb32627-65/processing/analysis/mode
REMARK            -autoncs -M TLSbasic -d Refine_4                              
REMARK Files used:                                                              
REMARK   PDB              = Refine_4/pdbchk.pdb                                 
REMARK   MTZ              = /dls/labxchem/data/lb32627/lb32627-65/processing/ana
REMARK output written to subdirectory = Refine_4                                
REMARK best refinement for F,SIGF with R/Rfree 0.2374/0.2697                    
REMARK header records are copied from input PDB file (apart from REMARK 3!)     
REMARK --------------------- added by autoBUSTER -------------------------------
REMARK --------------------- added by autoBUSTER -------------------------------
REMARK run at   = Tue May 23 17:13:23 BST 2023                                  
REMARK     in   = /dls/labxchem/data/lb32627/lb32627-65/processing/analysis/mode
REMARK     user = xau79897                                                      
REMARK     cmd  = \                                                             
REMARK            /dls_sw/apps/GPhL/BUSTER/20230217/autoBUSTER/bin/linux64/refin
REMARK            -p \                                                          
REMARK            /dls/labxchem/data/lb32627/lb32627-65/processing/analysis/mode
REMARK            -m \                                                          
REMARK            /dls/labxchem/data/lb32627/lb32627-65/processing/analysis/mode
REMARK            -l \                                                          
REMARK            /dls/labxchem/data/lb32627/lb32627-65/processing/analysis/mode
REMARK            -autoncs -M TLSbasic -d Refine_3                              
REMARK Files used:                                                              
REMARK   PDB              = Refine_3/pdbchk.pdb                                 
REMARK   MTZ              = /dls/labxchem/data/lb32627/lb32627-65/processing/ana
REMARK output written to subdirectory = Refine_3                                
REMARK best refinement for F,SIGF with R/Rfree 0.2372/0.2688                    
REMARK header records are copied from input PDB file (apart from REMARK 3!)     
REMARK --------------------- added by autoBUSTER -------------------------------
REMARK   2                                                            
REMARK   2 RESOLUTION.    1.71 ANGSTROMS.
REMARK   3
REMARK   3 REFINEMENT.
REMARK   3   PROGRAM     : BUSTER 2.10.4 (26-JUL-2023)
REMARK   3   AUTHORS     : BRICOGNE,BLANC,BRANDL,FLENSBURG,KELLER,
REMARK   3               : PACIOREK,ROVERSI,SHARFF,SMART,VONRHEIN,WOMACK;
REMARK   3               : MATTHEWS,TEN EYCK,TRONRUD
REMARK   3
REMARK   3  DATA USED IN REFINEMENT.
REMARK   3   RESOLUTION RANGE HIGH (ANGSTROMS) : 1.709
REMARK   3   RESOLUTION RANGE LOW  (ANGSTROMS) : 25.09
REMARK   3   DATA CUTOFF            (SIGMA(F)) : 0.000
REMARK   3   COMPLETENESS FOR RANGE        (%) : 94.9
REMARK   3   NUMBER OF REFLECTIONS             : 21704
REMARK   3
REMARK   3  FIT TO DATA USED IN REFINEMENT.
REMARK   3   CROSS-VALIDATION METHOD          : THROUGHOUT
REMARK   3   FREE R VALUE TEST SET SELECTION  : RANDOM
REMARK   3   R VALUE     (WORKING + TEST SET) : 0.2362
REMARK   3   R VALUE            (WORKING SET) : 0.2341
REMARK   3   FREE R VALUE                     : 0.2766
REMARK   3   FREE R VALUE TEST SET SIZE   (%) : 5.050
REMARK   3   FREE R VALUE TEST SET COUNT      : 1095
REMARK   3   ESTIMATED ERROR OF FREE R VALUE  : NULL
REMARK   3
REMARK   3  FIT IN THE HIGHEST RESOLUTION BIN.
REMARK   3   TOTAL NUMBER OF BINS USED           : 51
REMARK   3   BIN RESOLUTION RANGE HIGH       (A) : 1.71
REMARK   3   BIN RESOLUTION RANGE LOW        (A) : 1.75
REMARK   3   BIN COMPLETENESS (WORKING+TEST) (%) : 30.40
REMARK   3   REFLECTIONS IN BIN   (WORKING+TEST) : 435
REMARK   3   BIN R VALUE          (WORKING+TEST) : 0.5359
REMARK   3   REFLECTIONS IN BIN    (WORKING SET) : 415
REMARK   3   BIN R VALUE           (WORKING SET) : 0.5369
REMARK   3   BIN FREE R VALUE                    : 0.5137
REMARK   3   BIN FREE R VALUE TEST SET SIZE  (%) : 4.60
REMARK   3   BIN FREE R VALUE TEST SET COUNT     : 20
REMARK   3   ESTIMATED ERROR OF BIN FREE R VALUE : NULL
REMARK   3
REMARK   3  NUMBER OF NON-HYDROGEN ATOMS USED IN REFINEMENT.
REMARK   3   PROTEIN ATOMS            : 1476
REMARK   3   NUCLEIC ACID ATOMS       : 0
REMARK   3   HETEROGEN ATOMS          : 36
REMARK   3   SOLVENT ATOMS            : 94
REMARK   3
REMARK   3  B VALUES.
REMARK   3   FROM WILSON PLOT           (A**2) : 38.85
REMARK   3   MEAN B VALUE      (OVERALL, A**2) : 53.93
REMARK   3   OVERALL ANISOTROPIC B VALUE.
REMARK   3    B11 (A**2) : -6.49910
REMARK   3    B22 (A**2) : -6.49910
REMARK   3    B33 (A**2) : 12.99830
REMARK   3    B12 (A**2) : 0.00000
REMARK   3    B13 (A**2) : 0.00000
REMARK   3    B23 (A**2) : 0.00000
REMARK   3
REMARK   3  ESTIMATED COORDINATE ERROR.
REMARK   3   ESD FROM LUZZATI PLOT                    (A) : 0.34
REMARK   3   DPI (BLOW EQ-10) BASED ON R VALUE        (A) : 0.141
REMARK   3   DPI (BLOW EQ-9) BASED ON FREE R VALUE    (A) : 0.136
REMARK   3   DPI (CRUICKSHANK) BASED ON R VALUE       (A) : 0.132
REMARK   3   DPI (CRUICKSHANK) BASED ON FREE R VALUE  (A) : 0.131
REMARK   3
REMARK   3   REFERENCES: BLOW, D. (2002) ACTA CRYST D58, 792-797
REMARK   3               CRUICKSHANK, D.W.J. (1999) ACTA CRYST D55, 583-601
REMARK   3
REMARK   3  CORRELATION COEFFICIENTS.
REMARK   3   CORRELATION COEFFICIENT FO-FC      : 0.946
REMARK   3   CORRELATION COEFFICIENT FO-FC FREE : 0.927
REMARK   3
REMARK   3  X-RAY WEIGHT : 7.07
REMARK   3
REMARK   3  GEOMETRY FUNCTION.                                                  
REMARK   3   RESTRAINT LIBRARIES.                                               
REMARK   3    NUMBER OF LIBRARIES USED :   9                                    
REMARK   3    LIBRARY  1 : protgeo_eh99.dat (V1.6.4.20) 20220523  STANDARD      
REMARK   3                 AMINO ACID DICTIONARY. BONDS AND ANGLES FROM         
REMARK   3                 ENGH AND HUBER EH99. OTHER VALUES BASED ON           
REMARK   3                 PREVIOUS TNT OR TAKEN FROM CCP4. INCLUDES            
REMARK   3                 HYDROGEN ATOMS.                                      
REMARK   3    LIBRARY  2 : exoticaa.dat (V1.3.4.16) 20220523  COLLECTION        
REMARK   3                 OF NON-STANDARD AMINO ACIDS, MAINLY EH91             
REMARK   3                 WITHOUT IDEAL DISTANCE INFO                          
REMARK   3    LIBRARY  3 : nuclgeo.dat (V1.13.4.9) 20221011                     
REMARK   3    LIBRARY  4 : bcorrel.dat (V1.15.10.2) 20190616                    
REMARK   3    LIBRARY  5 : contact.dat (V1.15.12.10) 20191121                   
REMARK   3    LIBRARY  6 : idealdist_contact.dat (V1.3.4.14) 20230724           
REMARK   3                 IDEAL-DISTANCE CONTACT TERM DATA AS USED IN          
REMARK   3                 PROLSQ. VALUES USED HERE ARE BASEd ON DATA           
REMARK   3                 HARVESTING OF PDB AS OF 20190109                     
REMARK   3    LIBRARY  7 : restraints for LIG (unknown) from cif                
REMARK   3                 dictionary Z1269220427.cif; generated by GRADE       
REMARK   3                 1.2.21 (Feb 03 2022) from SMILES                     
REMARK   3                 CS(=O)(=O)c1cccc2cccnc12 using MOGUL                 
REMARK   3                 1.8.5(274361), CSD as541be, with quantum             
REMARK   3                 mechanics RM1                                        
REMARK   3    LIBRARY  8 : restraints for DMS (DIMETHYL SULFOXIDE) from         
REMARK   3                 cif dictionary DMS.cif; generated by grade2          
REMARK   3                 version 1.1.0a7 from                                 
REMARK   3                 PDB_chemical_components_definition_file              
REMARK   3                 ftp://ftp.ebi.ac.uk/pub/databases/msd/pdbechem_v     
REMARK   3                 2/D/DMS/DMS.cif using RDKit 2021.03.4                
REMARK   3                 ((DatabaseID PDB-DMS))                               
REMARK   3    LIBRARY  9 : assume.dat (V1.9.4.3) 20221011                       
REMARK   3                                                                      
REMARK   3   NUMBER OF GEOMETRIC FUNCTION TERMS DEFINED : 15                    
REMARK   3   TERM                          COUNT    WEIGHT   FUNCTION.          
REMARK   3    BOND LENGTHS              :   1555 ;   2.00 ;  HARMONIC           
REMARK   3    BOND ANGLES               :   2112 ;   2.00 ;  HARMONIC           
REMARK   3    TORSION ANGLES            :    522 ;   2.00 ;  SINUSOIDAL         
REMARK   3    TRIGONAL CARBON PLANES    :   NULL ;   NULL ;  NULL               
REMARK   3    GENERAL PLANES            :    291 ;   5.00 ;  HARMONIC           
REMARK   3    ISOTROPIC THERMAL FACTORS :   1555 ;  10.00 ;  HARMONIC           
REMARK   3    BAD NON-BONDED CONTACTS   :   NULL ;   NULL ;  NULL               
REMARK   3    IMPROPER TORSIONS         :   NULL ;   NULL ;  NULL               
REMARK   3    PSEUDOROTATION ANGLES     :   NULL ;   NULL ;  NULL               
REMARK   3    CHIRAL IMPROPER TORSION   :    192 ;   5.00 ;  SEMIHARMONIC       
REMARK   3    SUM OF OCCUPANCIES        :   NULL ;   NULL ;  NULL               
REMARK   3    UTILITY DISTANCES         :   NULL ;   NULL ;  NULL               
REMARK   3    UTILITY ANGLES            :   NULL ;   NULL ;  NULL               
REMARK   3    UTILITY TORSION           :   NULL ;   NULL ;  NULL               
REMARK   3    IDEAL-DIST CONTACT TERM   :   1229 ;   4.00 ;  SEMIHARMONIC       
REMARK   3                                                                      
REMARK   3   RMS DEVIATIONS FROM IDEAL VALUES.                                  
REMARK   3   BOND LENGTHS                       (A) : 0.009                     
REMARK   3   BOND ANGLES                  (DEGREES) : 0.98                      
REMARK   3   PEPTIDE OMEGA TORSION ANGLES (DEGREES) : 3.74                      
REMARK   3   OTHER TORSION ANGLES         (DEGREES) : 15.92                     
REMARK   3                                                                      
REMARK   3   SIMILARITY.                                                        
REMARK   3    NCS.                                                              
REMARK   3     NCS METHOD: NONE                                                 
REMARK   3    TARGET RESTRAINTS.                                                
REMARK   3     TARGET REPRESENTATION : NONE                                     
REMARK   3     TARGET STRUCTURE : NULL                                          
REMARK   3                                                                      
REMARK   3  TLS DETAILS.                                                        
REMARK   3   NUMBER OF TLS GROUPS  :            2                               
REMARK   3                                                                      
REMARK   3   TLS GROUP :            1                                           
REMARK   3    SET : { A|* }                                                     
REMARK   3    ORIGIN FOR THE GROUP (A):  -13.9909   -1.3687  -19.5426           
REMARK   3    T TENSOR                                                          
REMARK   3     T11:   -0.0503 T22:   -0.0474                                    
REMARK   3     T33:   -0.1582 T12:    0.1086                                    
REMARK   3     T13:    0.1081 T23:    0.0892                                    
REMARK   3    L TENSOR                                                          
REMARK   3     L11:    3.8473 L22:    3.6849                                    
REMARK   3     L33:    4.4244 L12:   -2.0137                                    
REMARK   3     L13:    0.9572 L23:    0.8051                                    
REMARK   3    S TENSOR                                                          
REMARK   3     S11:    0.4439 S12:    0.4696 S13:    0.1930                     
REMARK   3     S21:   -0.5366 S22:   -0.3109 S23:   -0.2507                     
REMARK   3     S31:   -0.1297 S32:    0.6538 S33:   -0.1330                     
REMARK   3                                                                      
REMARK   3   TLS GROUP :            2                                           
REMARK   3    SET : { B|* }                                                     
REMARK   3    ORIGIN FOR THE GROUP (A):  -18.5873    1.2706  -15.7078           
REMARK   3    T TENSOR                                                          
REMARK   3     T11:    0.0616 T22:   -0.0148                                    
REMARK   3     T33:   -0.0171 T12:    0.1250                                    
REMARK   3     T13:    0.0259 T23:    0.0312                                    
REMARK   3    L TENSOR                                                          
REMARK   3     L11:    1.7546 L22:    1.4443                                    
REMARK   3     L33:    2.4920 L12:   -1.0884                                    
REMARK   3     L13:    0.9429 L23:    0.0126                                    
REMARK   3    S TENSOR                                                          
REMARK   3     S11:    0.2852 S12:    0.1378 S13:    0.1219                     
REMARK   3     S21:   -0.1385 S22:   -0.2691 S23:    0.0552                     
REMARK   3     S31:   -0.0282 S32:    0.1863 S33:   -0.0162                     
REMARK   3                                                                      
REMARK   3  REFINEMENT NOTES.                                                   
REMARK   3   NUMBER OF REFINEMENT NOTES :   1                                   
REMARK   3   NOTE   1 : IDEAL-DIST CONTACT TERM CONTACT SETUP. ALL ATOMS        
REMARK   3               HAVE CCP4 ATOM TYPE FROM LIBRARY                       
REMARK   3
REMARK   3  OTHER REFINEMENT REMARKS: NULL
REMARK   3
REMARK 290                                                            
REMARK 290 CRYSTALLOGRAPHIC SYMMETRY                                  
REMARK 290 SYMMETRY OPERATORS FOR SPACE GROUP: P 43 2 2               
REMARK 290                                                            
REMARK 290      SYMOP   SYMMETRY                                      
REMARK 290     NNNMMM   OPERATOR                                      
REMARK 290       1555   X,Y,Z                                         
REMARK 290       2555   -X,-Y,1/2+Z                                   
REMARK 290       3555   -Y,X,3/4+Z                                    
REMARK 290       4555   Y,-X,1/4+Z                                    
REMARK 290       5555   -X,Y,-Z                                       
REMARK 290       6555   X,-Y,1/2-Z                                    
REMARK 290       7555   Y,X,1/4-Z                                     
REMARK 290       8555   -Y,-X,3/4-Z                                   
REMARK 290                                                            
REMARK 290     WHERE NNN -> OPERATOR NUMBER                           
REMARK 290           MMM -> TRANSLATION VECTOR                        
REMARK 290                                                            
REMARK 290 CRYSTALLOGRAPHIC SYMMETRY TRANSFORMATIONS                  
REMARK 290 THE FOLLOWING TRANSFORMATIONS OPERATE ON THE ATOM/HETATM   
REMARK 290 RECORDS IN THIS ENTRY TO PRODUCE CRYSTALLOGRAPHICALLY      
REMARK 290 RELATED MOLECULES.                                         
REMARK 290   SMTRY1   1  1.000000  0.000000  0.000000        0.00000
REMARK 290   SMTRY2   1  0.000000  1.000000  0.000000        0.00000
REMARK 290   SMTRY3   1  0.000000  0.000000  1.000000        0.00000
REMARK 290   SMTRY1   2 -1.000000  0.000000  0.000000        0.00000
REMARK 290   SMTRY2   2  0.000000 -1.000000  0.000000        0.00000
REMARK 290   SMTRY3   2  0.000000  0.000000  1.000000      108.65600
REMARK 290   SMTRY1   3  0.000000 -1.000000  0.000000        0.00000
REMARK 290   SMTRY2   3  1.000000  0.000000  0.000000        0.00000
REMARK 290   SMTRY3   3  0.000000  0.000000  1.000000      162.98400
REMARK 290   SMTRY1   4  0.000000  1.000000  0.000000        0.00000
REMARK 290   SMTRY2   4 -1.000000  0.000000  0.000000        0.00000
REMARK 290   SMTRY3   4  0.000000  0.000000  1.000000       54.32800
REMARK 290   SMTRY1   5 -1.000000  0.000000  0.000000        0.00000
REMARK 290   SMTRY2   5  0.000000  1.000000  0.000000        0.00000
REMARK 290   SMTRY3   5  0.000000  0.000000 -1.000000        0.00000
REMARK 290   SMTRY1   6  1.000000  0.000000  0.000000        0.00000
REMARK 290   SMTRY2   6  0.000000 -1.000000  0.000000        0.00000
REMARK 290   SMTRY3   6  0.000000  0.000000 -1.000000      108.65600
REMARK 290   SMTRY1   7  0.000000  1.000000  0.000000        0.00000
REMARK 290   SMTRY2   7  1.000000  0.000000  0.000000        0.00000
REMARK 290   SMTRY3   7  0.000000  0.000000 -1.000000       54.32800
REMARK 290   SMTRY1   8  0.000000 -1.000000  0.000000        0.00000
REMARK 290   SMTRY2   8 -1.000000  0.000000  0.000000        0.00000
REMARK 290   SMTRY3   8  0.000000  0.000000 -1.000000      162.98400
REMARK 290                                                            
REMARK 290 REMARK: NULL                                               
CRYST1   42.605   42.605  217.312  90.00  90.00  90.00 P 43 2 2                 


$$$$
Zx0773b_ligand
  PyMOL3.0          3D                             0

 14 15  0  0  0  0  0  0  0  0999 V2000
  -24.1980    6.1760    0.9730 C   0  0  0  0  0  0  0  0  0  0  0  0
  -22.0000    7.2060    0.3990 N   0  0  0  0  0  0  0  0  0  0  0  0
  -23.1650    4.5740    2.7300 O   0  0  0  0  0  0  0  0  0  0  0  0
  -23.3700    4.6740    1.3130 S   0  0  0  0  0  0  0  0  0  0  0  0
  -21.7790    4.8120    0.5420 C   0  0  0  0  0  0  0  0  0  0  0  0
  -24.0770    3.6070    0.6530 O   0  0  0  0  0  0  0  0  0  0  0  0
  -21.2460    6.0850    0.2010 C   0  0  0  0  0  0  0  0  0  0  0  0
  -21.4510    8.3650    0.0940 C   0  0  0  0  0  0  0  0  0  0  0  0
  -20.1690    8.5150   -0.4000 C   0  0  0  0  0  0  0  0  0  0  0  0
  -19.4110    7.4050   -0.6130 C   0  0  0  0  0  0  0  0  0  0  0  0
  -19.9290    6.1320   -0.3160 C   0  0  0  0  0  0  0  0  0  0  0  0
  -19.1980    4.9300   -0.4650 C   0  0  0  0  0  0  0  0  0  0  0  0
  -19.7520    3.7330   -0.1180 C   0  0  0  0  0  0  0  0  0  0  0  0
  -21.0490    3.6690    0.3640 C   0  0  0  0  0  0  0  0  0  0  0  0
  2  8  4  0  0  0  0
  3  4  2  0  0  0  0
  1  4  1  0  0  0  0
  4  5  1  0  0  0  0
  4  6  2  0  0  0  0
  5  7  4  0  0  0  0
  5 14  4  0  0  0  0
  2  7  4  0  0  0  0
  7 11  4  0  0  0  0
  8  9  4  0  0  0  0
  9 10  4  0  0  0  0
 10 11  4  0  0  0  0
 11 12  4  0  0  0  0
 12 13  4  0  0  0  0
 13 14  4  0  0  0  0
M  END
>  <pdb_header>
COMPND    XX01ZVNS2B-x0773_B_401_XX01ZVNS2B-x0773+B+401+1


$$$$
Zx0777a
  PyMOL3.0          3D                             0

 30 32  0  0  0  0  0  0  0  0999 V2000
  -12.8760   -7.7320   -3.5420 N   0  0  0  0  0  0  0  0  0  0  0  0
  -12.8810   -7.7420   -3.5330 N   0  0  0  0  0  0  0  0  0  0  0  0
  -11.9700   -9.3790   -2.0340 C   0  0  0  0  0  0  0  0  0  0  0  0
  -11.9670   -9.3860   -2.0290 C   0  0  0  0  0  0  0  0  0  0  0  0
   -8.5260  -10.5770   -7.2220 O   0  0  0  0  0  0  0  0  0  0  0  0
   -8.5310  -10.5770   -7.2210 O   0  0  0  0  0  0  0  0  0  0  0  0
  -12.2630   -8.8830   -3.4050 C   0  0  0  0  0  0  0  0  0  0  0  0
  -12.2650   -8.8920   -3.3990 C   0  0  0  0  0  0  0  0  0  0  0  0
  -12.1810   -9.3900   -6.8480 N   0  0  0  0  0  0  0  0  0  0  0  0
  -12.1870   -9.3940   -6.8430 N   0  0  0  0  0  0  0  0  0  0  0  0
  -12.3250   -8.9470   -5.5820 C   0  0  0  0  0  0  0  0  0  0  0  0
  -12.3310   -8.9540   -5.5750 C   0  0  0  0  0  0  0  0  0  0  0  0
  -11.9240   -9.6090   -4.5220 N   0  0  0  0  0  0  0  0  0  0  0  0
  -11.9270   -9.6150   -4.5180 N   0  0  0  0  0  0  0  0  0  0  0  0
  -11.5400  -10.6380   -7.2520 C   0  0  0  0  0  0  0  0  0  0  0  0
  -11.5440  -10.6410   -7.2490 C   0  0  0  0  0  0  0  0  0  0  0  0
  -12.5680  -11.7100   -7.6360 C   0  0  0  0  0  0  0  0  0  0  0  0
  -12.5720  -11.7120   -7.6340 C   0  0  0  0  0  0  0  0  0  0  0  0
  -11.8610  -12.6170   -8.6440 C   0  0  0  0  0  0  0  0  0  0  0  0
  -11.8660  -12.6160   -8.6450 C   0  0  0  0  0  0  0  0  0  0  0  0
  -10.4960  -11.9870   -8.9170 C   0  0  0  0  0  0  0  0  0  0  0  0
  -10.5010  -11.9850   -8.9180 C   0  0  0  0  0  0  0  0  0  0  0  0
  -10.6420  -10.5100   -8.5040 C   0  0  0  0  0  0  0  0  0  0  0  0
  -10.6470  -10.5090   -8.5010 C   0  0  0  0  0  0  0  0  0  0  0  0
  -11.3020   -9.7130   -9.6370 C   0  0  0  0  0  0  0  0  0  0  0  0
  -11.3090   -9.7100   -9.6320 C   0  0  0  0  0  0  0  0  0  0  0  0
   -9.2670   -9.8850   -8.2180 C   0  0  0  0  0  0  0  0  0  0  0  0
   -9.2720   -9.8850   -8.2160 C   0  0  0  0  0  0  0  0  0  0  0  0
  -13.0920   -7.4560   -5.1750 S   0  0  0  0  0  0  0  0  0  0  0  0
  -13.1000   -7.4640   -5.1660 S   0  0  0  0  0  0  0  0  0  0  0  0
  1  7  4  0  0  0  0
  2  8  4  0  0  0  0
  5 27  1  0  0  0  0
  6 28  1  0  0  0  0
  3  7  1  0  0  0  0
  4  8  1  0  0  0  0
  9 11  1  0  0  0  0
 10 12  1  0  0  0  0
 11 13  4  0  0  0  0
 11 29  4  0  0  0  0
 12 14  4  0  0  0  0
 12 30  4  0  0  0  0
  7 13  4  0  0  0  0
  8 14  4  0  0  0  0
  9 15  1  0  0  0  0
 10 16  1  0  0  0  0
 15 17  1  0  0  0  0
 16 18  1  0  0  0  0
 17 19  1  0  0  0  0
 18 20  1  0  0  0  0
 19 21  1  0  0  0  0
 20 22  1  0  0  0  0
 15 23  1  0  0  0  0
 21 23  1  0  0  0  0
 23 25  1  0  0  0  0
 16 24  1  0  0  0  0
 22 24  1  0  0  0  0
 24 26  1  0  0  0  0
 23 27  1  0  0  0  0
 24 28  1  0  0  0  0
  1 29  4  0  0  0  0
  2 30  4  0  0  0  0
M  END
>  <pdb_header>
HEADER    ----                                    18-MAY-23                     
TITLE     ---                                                                   
EXPDTA    X-RAY DIFFRACTION                                                     
REMARK --------------------- added by autoBUSTER ---------------------------------START
REMARK run at   = Fri Aug 18 10:34:48 BST 2023
REMARK     in   = /dls/labxchem/data/lb32627/lb32627-65/processing/analysis/model_building/XX01ZVNS2B-x0777
REMARK     user = kyf22269
REMARK     cmd  = \
REMARK            /dls_sw/apps/GPhL/BUSTER/20230614/autoBUSTER/bin/linux64/refine \
REMARK            -p \
REMARK            /dls/labxchem/data/lb32627/lb32627-65/processing/analysis/model_building/XX01ZVNS2B-x0777/cootOut/Refi
REMARK            -m \
REMARK            /dls/labxchem/data/lb32627/lb32627-65/processing/analysis/model_building/XX01ZVNS2B-x0777/XX01ZVNS2B-x
REMARK            -l \
REMARK            /dls/labxchem/data/lb32627/lb32627-65/processing/analysis/model_building/XX01ZVNS2B-x0777/Z1272517105.
REMARK            -autoncs -M TLSbasic -d Refine_12
REMARK Files used:
REMARK   PDB              = Refine_12/pdbchk.pdb
REMARK   MTZ              = /dls/labxchem/data/lb32627/lb32627-65/processing/analysis/model_building/XX01ZVNS2B-x0777/XX
REMARK output written to subdirectory = Refine_12
REMARK best refinement for F,SIGF with R/Rfree 0.2278/0.2534
REMARK header records are copied from input PDB file (apart from REMARK 3!)
REMARK --------------------- added by autoBUSTER -----------------------------------END
REMARK --------------------- added by autoBUSTER -------------------------------
REMARK run at   = Fri Aug 18 09:44:43 BST 2023                                  
REMARK     in   = /dls/labxchem/data/lb32627/lb32627-65/processing/analysis/mode
REMARK     user = kyf22269                                                      
REMARK     cmd  = \                                                             
REMARK            /dls_sw/apps/GPhL/BUSTER/20230614/autoBUSTER/bin/linux64/refin
REMARK            -p \                                                          
REMARK            /dls/labxchem/data/lb32627/lb32627-65/processing/analysis/mode
REMARK            -m \                                                          
REMARK            /dls/labxchem/data/lb32627/lb32627-65/processing/analysis/mode
REMARK            -l \                                                          
REMARK            /dls/labxchem/data/lb32627/lb32627-65/processing/analysis/mode
REMARK            -autoncs -M TLSbasic -d Refine_11                             
REMARK Files used:                                                              
REMARK   PDB              = Refine_11/pdbchk.pdb                                
REMARK   MTZ              = /dls/labxchem/data/lb32627/lb32627-65/processing/ana
REMARK output written to subdirectory = Refine_11                               
REMARK best refinement for F,SIGF with R/Rfree 0.2276/0.2512                    
REMARK header records are copied from input PDB file (apart from REMARK 3!)     
REMARK --------------------- added by autoBUSTER -------------------------------
REMARK --------------------- added by autoBUSTER -------------------------------
REMARK run at   = Thu Aug 10 13:27:30 BST 2023                                  
REMARK     in   = /dls/labxchem/data/lb32627/lb32627-65/processing/analysis/mode
REMARK     user = kyf22269                                                      
REMARK     cmd  = \                                                             
REMARK            /dls_sw/apps/GPhL/BUSTER/20230614/autoBUSTER/bin/linux64/refin
REMARK            -p \                                                          
REMARK            /dls/labxchem/data/lb32627/lb32627-65/processing/analysis/mode
REMARK            -m \                                                          
REMARK            /dls/labxchem/data/lb32627/lb32627-65/processing/analysis/mode
REMARK            -l \                                                          
REMARK            /dls/labxchem/data/lb32627/lb32627-65/processing/analysis/mode
REMARK            -autoncs -M TLSbasic -d Refine_10                             
REMARK Files used:                                                              
REMARK   PDB              = Refine_10/pdbchk.pdb                                
REMARK   MTZ              = /dls/labxchem/data/lb32627/lb32627-65/processing/ana
REMARK output written to subdirectory = Refine_10                               
REMARK best refinement for F,SIGF with R/Rfree 0.2286/0.2525                    
REMARK header records are copied from input PDB file (apart from REMARK 3!)     
REMARK --------------------- added by autoBUSTER -------------------------------
REMARK --------------------- added by autoBUSTER -------------------------------
REMARK run at   = Wed Aug  9 11:27:41 BST 2023                                  
REMARK     in   = /dls/labxchem/data/lb32627/lb32627-65/processing/analysis/mode
REMARK     user = kyf22269                                                      
REMARK     cmd  = \                                                             
REMARK            /dls_sw/apps/GPhL/BUSTER/20230614/autoBUSTER/bin/linux64/refin
REMARK            -p \                                                          
REMARK            /dls/labxchem/data/lb32627/lb32627-65/processing/analysis/mode
REMARK            -m \                                                          
REMARK            /dls/labxchem/data/lb32627/lb32627-65/processing/analysis/mode
REMARK            -l \                                                          
REMARK            /dls/labxchem/data/lb32627/lb32627-65/processing/analysis/mode
REMARK            -autoncs -M TLSbasic -d Refine_9                              
REMARK Files used:                                                              
REMARK   PDB              = Refine_9/pdbchk.pdb                                 
REMARK   MTZ              = /dls/labxchem/data/lb32627/lb32627-65/processing/ana
REMARK output written to subdirectory = Refine_9                                
REMARK best refinement for F,SIGF with R/Rfree 0.2290/0.2525                    
REMARK header records are copied from input PDB file (apart from REMARK 3!)     
REMARK --------------------- added by autoBUSTER -------------------------------
REMARK --------------------- added by autoBUSTER -------------------------------
REMARK run at   = Tue Aug  1 17:24:56 BST 2023                                  
REMARK     in   = /dls/labxchem/data/lb32627/lb32627-65/processing/analysis/mode
REMARK     user = kyf22269                                                      
REMARK     cmd  = \                                                             
REMARK            /dls_sw/apps/GPhL/BUSTER/20230614/autoBUSTER/bin/linux64/refin
REMARK            -p \                                                          
REMARK            /dls/labxchem/data/lb32627/lb32627-65/processing/analysis/mode
REMARK            -m \                                                          
REMARK            /dls/labxchem/data/lb32627/lb32627-65/processing/analysis/mode
REMARK            -l \                                                          
REMARK            /dls/labxchem/data/lb32627/lb32627-65/processing/analysis/mode
REMARK            -autoncs -M TLSbasic -d Refine_8                              
REMARK Files used:                                                              
REMARK   PDB              = Refine_8/pdbchk.pdb                                 
REMARK   MTZ              = /dls/labxchem/data/lb32627/lb32627-65/processing/ana
REMARK output written to subdirectory = Refine_8                                
REMARK best refinement for F,SIGF with R/Rfree 0.2305/0.2564                    
REMARK header records are copied from input PDB file (apart from REMARK 3!)     
REMARK --------------------- added by autoBUSTER -------------------------------
REMARK --------------------- added by autoBUSTER -------------------------------
REMARK run at   = Mon Jul 17 14:48:06 BST 2023                                  
REMARK     in   = /dls/labxchem/data/lb32627/lb32627-65/processing/analysis/mode
REMARK     user = kyf22269                                                      
REMARK     cmd  = \                                                             
REMARK            /dls_sw/apps/GPhL/BUSTER/20230614/autoBUSTER/bin/linux64/refin
REMARK            -p \                                                          
REMARK            /dls/labxchem/data/lb32627/lb32627-65/processing/analysis/mode
REMARK            -m \                                                          
REMARK            /dls/labxchem/data/lb32627/lb32627-65/processing/analysis/mode
REMARK            -l \                                                          
REMARK            /dls/labxchem/data/lb32627/lb32627-65/processing/analysis/mode
REMARK            -autoncs -M TLSbasic -d Refine_7                              
REMARK Files used:                                                              
REMARK   PDB              = Refine_7/pdbchk.pdb                                 
REMARK   MTZ              = /dls/labxchem/data/lb32627/lb32627-65/processing/ana
REMARK output written to subdirectory = Refine_7                                
REMARK best refinement for F,SIGF with R/Rfree 0.2359/0.2616                    
REMARK header records are copied from input PDB file (apart from REMARK 3!)     
REMARK --------------------- added by autoBUSTER -------------------------------
REMARK --------------------- added by autoBUSTER -------------------------------
REMARK run at   = Thu Jul  6 16:18:23 BST 2023                                  
REMARK     in   = /dls/labxchem/data/lb32627/lb32627-65/processing/analysis/mode
REMARK     user = kyf22269                                                      
REMARK     cmd  = \                                                             
REMARK            /dls_sw/apps/GPhL/BUSTER/20230614/autoBUSTER/bin/linux64/refin
REMARK            -p \                                                          
REMARK            /dls/labxchem/data/lb32627/lb32627-65/processing/analysis/mode
REMARK            -m \                                                          
REMARK            /dls/labxchem/data/lb32627/lb32627-65/processing/analysis/mode
REMARK            -l \                                                          
REMARK            /dls/labxchem/data/lb32627/lb32627-65/processing/analysis/mode
REMARK            -autoncs -M TLSbasic -d Refine_6                              
REMARK Files used:                                                              
REMARK   PDB              = Refine_6/pdbchk.pdb                                 
REMARK   MTZ              = /dls/labxchem/data/lb32627/lb32627-65/processing/ana
REMARK output written to subdirectory = Refine_6                                
REMARK best refinement for F,SIGF with R/Rfree 0.2336/0.2565                    
REMARK header records are copied from input PDB file (apart from REMARK 3!)     
REMARK --------------------- added by autoBUSTER -------------------------------
REMARK --------------------- added by autoBUSTER -------------------------------
REMARK run at   = Thu Jul  6 15:16:28 BST 2023                                  
REMARK     in   = /dls/labxchem/data/lb32627/lb32627-65/processing/analysis/mode
REMARK     user = kyf22269                                                      
REMARK     cmd  = \                                                             
REMARK            /dls_sw/apps/GPhL/BUSTER/20230614/autoBUSTER/bin/linux64/refin
REMARK            -p \                                                          
REMARK            /dls/labxchem/data/lb32627/lb32627-65/processing/analysis/mode
REMARK            -m \                                                          
REMARK            /dls/labxchem/data/lb32627/lb32627-65/processing/analysis/mode
REMARK            -l \                                                          
REMARK            /dls/labxchem/data/lb32627/lb32627-65/processing/analysis/mode
REMARK            -autoncs -M TLSbasic -d Refine_5                              
REMARK Files used:                                                              
REMARK   PDB              = Refine_5/pdbchk.pdb                                 
REMARK   MTZ              = /dls/labxchem/data/lb32627/lb32627-65/processing/ana
REMARK output written to subdirectory = Refine_5                                
REMARK best refinement for F,SIGF with R/Rfree 0.2326/0.2566                    
REMARK header records are copied from input PDB file (apart from REMARK 3!)     
REMARK --------------------- added by autoBUSTER -------------------------------
REMARK --------------------- added by autoBUSTER -------------------------------
REMARK run at   = Thu Jul  6 13:43:24 BST 2023                                  
REMARK     in   = /dls/labxchem/data/lb32627/lb32627-65/processing/analysis/mode
REMARK     user = kyf22269                                                      
REMARK     cmd  = \                                                             
REMARK            /dls_sw/apps/GPhL/BUSTER/20230614/autoBUSTER/bin/linux64/refin
REMARK            -p \                                                          
REMARK            /dls/labxchem/data/lb32627/lb32627-65/processing/analysis/mode
REMARK            -m \                                                          
REMARK            /dls/labxchem/data/lb32627/lb32627-65/processing/analysis/mode
REMARK            -l \                                                          
REMARK            /dls/labxchem/data/lb32627/lb32627-65/processing/analysis/mode
REMARK            -autoncs -M TLSbasic -d Refine_4                              
REMARK Files used:                                                              
REMARK   PDB              = Refine_4/pdbchk.pdb                                 
REMARK   MTZ              = /dls/labxchem/data/lb32627/lb32627-65/processing/ana
REMARK output written to subdirectory = Refine_4                                
REMARK best refinement for F,SIGF with R/Rfree 0.2362/0.2607                    
REMARK header records are copied from input PDB file (apart from REMARK 3!)     
REMARK --------------------- added by autoBUSTER -------------------------------
REMARK   2                                                            
REMARK   2 RESOLUTION.    1.60 ANGSTROMS.
REMARK   3
REMARK   3 REFINEMENT.
REMARK   3   PROGRAM     : BUSTER 2.10.4 (14-JUN-2023)
REMARK   3   AUTHORS     : BRICOGNE,BLANC,BRANDL,FLENSBURG,KELLER,
REMARK   3               : PACIOREK,ROVERSI,SHARFF,SMART,VONRHEIN,WOMACK;
REMARK   3               : MATTHEWS,TEN EYCK,TRONRUD
REMARK   3
REMARK   3  DATA USED IN REFINEMENT.
REMARK   3   RESOLUTION RANGE HIGH (ANGSTROMS) : 1.602
REMARK   3   RESOLUTION RANGE LOW  (ANGSTROMS) : 23.03
REMARK   3   DATA CUTOFF            (SIGMA(F)) : 0.000
REMARK   3   COMPLETENESS FOR RANGE        (%) : 80.3
REMARK   3   NUMBER OF REFLECTIONS             : 21801
REMARK   3
REMARK   3  FIT TO DATA USED IN REFINEMENT.
REMARK   3   CROSS-VALIDATION METHOD          : THROUGHOUT
REMARK   3   FREE R VALUE TEST SET SELECTION  : RANDOM
REMARK   3   R VALUE     (WORKING + TEST SET) : 0.2291
REMARK   3   R VALUE            (WORKING SET) : 0.2278
REMARK   3   FREE R VALUE                     : 0.2534
REMARK   3   FREE R VALUE TEST SET SIZE   (%) : 5.040
REMARK   3   FREE R VALUE TEST SET COUNT      : 1098
REMARK   3   ESTIMATED ERROR OF FREE R VALUE  : NULL
REMARK   3
REMARK   3  FIT IN THE HIGHEST RESOLUTION BIN.
REMARK   3   TOTAL NUMBER OF BINS USED           : 51
REMARK   3   BIN RESOLUTION RANGE HIGH       (A) : 1.60
REMARK   3   BIN RESOLUTION RANGE LOW        (A) : 1.71
REMARK   3   BIN COMPLETENESS (WORKING+TEST) (%) : 9.54
REMARK   3   REFLECTIONS IN BIN   (WORKING+TEST) : 437
REMARK   3   BIN R VALUE          (WORKING+TEST) : 0.5442
REMARK   3   REFLECTIONS IN BIN    (WORKING SET) : 414
REMARK   3   BIN R VALUE           (WORKING SET) : 0.5460
REMARK   3   BIN FREE R VALUE                    : 0.5117
REMARK   3   BIN FREE R VALUE TEST SET SIZE  (%) : 5.26
REMARK   3   BIN FREE R VALUE TEST SET COUNT     : 23
REMARK   3   ESTIMATED ERROR OF BIN FREE R VALUE : NULL
REMARK   3
REMARK   3  NUMBER OF NON-HYDROGEN ATOMS USED IN REFINEMENT.
REMARK   3   PROTEIN ATOMS            : 1476
REMARK   3   NUCLEIC ACID ATOMS       : 0
REMARK   3   HETEROGEN ATOMS          : 51
REMARK   3   SOLVENT ATOMS            : 98
REMARK   3
REMARK   3  B VALUES.
REMARK   3   FROM WILSON PLOT           (A**2) : 31.49
REMARK   3   MEAN B VALUE      (OVERALL, A**2) : 51.06
REMARK   3   OVERALL ANISOTROPIC B VALUE.
REMARK   3    B11 (A**2) : -8.23390
REMARK   3    B22 (A**2) : -8.23390
REMARK   3    B33 (A**2) : 16.46770
REMARK   3    B12 (A**2) : 0.00000
REMARK   3    B13 (A**2) : 0.00000
REMARK   3    B23 (A**2) : 0.00000
REMARK   3
REMARK   3  ESTIMATED COORDINATE ERROR.
REMARK   3   ESD FROM LUZZATI PLOT                    (A) : 0.33
REMARK   3   DPI (BLOW EQ-10) BASED ON R VALUE        (A) : 0.140
REMARK   3   DPI (BLOW EQ-9) BASED ON FREE R VALUE    (A) : 0.126
REMARK   3   DPI (CRUICKSHANK) BASED ON R VALUE       (A) : 0.132
REMARK   3   DPI (CRUICKSHANK) BASED ON FREE R VALUE  (A) : 0.121
REMARK   3
REMARK   3   REFERENCES: BLOW, D. (2002) ACTA CRYST D58, 792-797
REMARK   3               CRUICKSHANK, D.W.J. (1999) ACTA CRYST D55, 583-601
REMARK   3
REMARK   3  CORRELATION COEFFICIENTS.
REMARK   3   CORRELATION COEFFICIENT FO-FC      : 0.938
REMARK   3   CORRELATION COEFFICIENT FO-FC FREE : 0.933
REMARK   3
REMARK   3  X-RAY WEIGHT : 7.01
REMARK   3
REMARK   3  GEOMETRY FUNCTION.                                                  
REMARK   3   RESTRAINT LIBRARIES.                                               
REMARK   3    NUMBER OF LIBRARIES USED :   9                                    
REMARK   3    LIBRARY  1 : protgeo_eh99.dat (V1.6.4.20) 20220523  STANDARD      
REMARK   3                 AMINO ACID DICTIONARY. BONDS AND ANGLES FROM         
REMARK   3                 ENGH AND HUBER EH99. OTHER VALUES BASED ON           
REMARK   3                 PREVIOUS TNT OR TAKEN FROM CCP4. INCLUDES            
REMARK   3                 HYDROGEN ATOMS.                                      
REMARK   3    LIBRARY  2 : exoticaa.dat (V1.3.4.16) 20220523  COLLECTION        
REMARK   3                 OF NON-STANDARD AMINO ACIDS, MAINLY EH91             
REMARK   3                 WITHOUT IDEAL DISTANCE INFO                          
REMARK   3    LIBRARY  3 : nuclgeo.dat (V1.13.4.9) 20221011                     
REMARK   3    LIBRARY  4 : bcorrel.dat (V1.15.10.2) 20190616                    
REMARK   3    LIBRARY  5 : contact.dat (V1.15.12.10) 20191121                   
REMARK   3    LIBRARY  6 : idealdist_contact.dat (V1.3.4.13) 20220125           
REMARK   3                 IDEAL-DISTANCE CONTACT TERM DATA AS USED IN          
REMARK   3                 PROLSQ. VALUES USED HERE ARE BASED ON DATA           
REMARK   3                 HARVESTING OF PDB AS OF 20190109.                    
REMARK   3    LIBRARY  7 : restraints for LIG (unknown) from cif                
REMARK   3                 dictionary Z1272517105.cif; generated by GRADE       
REMARK   3                 1.2.21 (Feb 03 2022) from SMILES                     
REMARK   3                 Cc1nsc(NC2CCCC2(C)CO)n1 using MOGUL                  
REMARK   3                 1.8.5(274361), CSD as541be, with quantum             
REMARK   3                 mechanics RM1                                        
REMARK   3    LIBRARY  8 : restraints for DMS (DIMETHYL SULFOXIDE) from         
REMARK   3                 cif dictionary DMS.cif; generated by grade2          
REMARK   3                 version 1.1.0a7 from                                 
REMARK   3                 PDB_chemical_components_definition_file              
REMARK   3                 ftp://ftp.ebi.ac.uk/pub/databases/msd/pdbechem_v     
REMARK   3                 2/D/DMS/DMS.cif using RDKit 2021.03.4                
REMARK   3                 ((DatabaseID PDB-DMS))                               
REMARK   3    LIBRARY  9 : assume.dat (V1.9.4.3) 20221011                       
REMARK   3                                                                      
REMARK   3   NUMBER OF GEOMETRIC FUNCTION TERMS DEFINED : 15                    
REMARK   3   TERM                          COUNT    WEIGHT   FUNCTION.          
REMARK   3    BOND LENGTHS              :   1633 ;   2.00 ;  HARMONIC           
REMARK   3    BOND ANGLES               :   2224 ;   2.00 ;  HARMONIC           
REMARK   3    TORSION ANGLES            :    555 ;   2.00 ;  SINUSOIDAL         
REMARK   3    TRIGONAL CARBON PLANES    :   NULL ;   NULL ;  NULL               
REMARK   3    GENERAL PLANES            :    290 ;   5.00 ;  HARMONIC           
REMARK   3    ISOTROPIC THERMAL FACTORS :   1633 ;  10.00 ;  HARMONIC           
REMARK   3    BAD NON-BONDED CONTACTS   :   NULL ;   NULL ;  NULL               
REMARK   3    IMPROPER TORSIONS         :   NULL ;   NULL ;  NULL               
REMARK   3    PSEUDOROTATION ANGLES     :   NULL ;   NULL ;  NULL               
REMARK   3    CHIRAL IMPROPER TORSION   :    201 ;   5.00 ;  SEMIHARMONIC       
REMARK   3    SUM OF OCCUPANCIES        :   NULL ;   NULL ;  NULL               
REMARK   3    UTILITY DISTANCES         :   NULL ;   NULL ;  NULL               
REMARK   3    UTILITY ANGLES            :   NULL ;   NULL ;  NULL               
REMARK   3    UTILITY TORSION           :   NULL ;   NULL ;  NULL               
REMARK   3    IDEAL-DIST CONTACT TERM   :   1385 ;   4.00 ;  SEMIHARMONIC       
REMARK   3                                                                      
REMARK   3   RMS DEVIATIONS FROM IDEAL VALUES.                                  
REMARK   3   BOND LENGTHS                       (A) : 0.010                     
REMARK   3   BOND ANGLES                  (DEGREES) : 1.04                      
REMARK   3   PEPTIDE OMEGA TORSION ANGLES (DEGREES) : 3.74                      
REMARK   3   OTHER TORSION ANGLES         (DEGREES) : 15.25                     
REMARK   3                                                                      
REMARK   3   SIMILARITY.                                                        
REMARK   3    NCS.                                                              
REMARK   3     NCS METHOD: NONE                                                 
REMARK   3    TARGET RESTRAINTS.                                                
REMARK   3     TARGET REPRESENTATION : NONE                                     
REMARK   3     TARGET STRUCTURE : NULL                                          
REMARK   3                                                                      
REMARK   3  TLS DETAILS.                                                        
REMARK   3   NUMBER OF TLS GROUPS  :            2                               
REMARK   3                                                                      
REMARK   3   TLS GROUP :            1                                           
REMARK   3    SET : { A|* }                                                     
REMARK   3    ORIGIN FOR THE GROUP (A):  -14.1225   -1.6803  -19.6843           
REMARK   3    T TENSOR                                                          
REMARK   3     T11:   -0.0697 T22:   -0.1151                                    
REMARK   3     T33:   -0.1155 T12:    0.0872                                    
REMARK   3     T13:    0.0961 T23:    0.0709                                    
REMARK   3    L TENSOR                                                          
REMARK   3     L11:    2.7576 L22:    3.7174                                    
REMARK   3     L33:    3.5590 L12:   -1.5975                                    
REMARK   3     L13:    0.4713 L23:    0.9511                                    
REMARK   3    S TENSOR                                                          
REMARK   3     S11:    0.3707 S12:    0.3484 S13:    0.1912                     
REMARK   3     S21:   -0.4947 S22:   -0.2792 S23:   -0.1982                     
REMARK   3     S31:   -0.0670 S32:    0.4455 S33:   -0.0915                     
REMARK   3                                                                      
REMARK   3   TLS GROUP :            2                                           
REMARK   3    SET : { B|* }                                                     
REMARK   3    ORIGIN FOR THE GROUP (A):  -18.1387    0.6276  -15.5363           
REMARK   3    T TENSOR                                                          
REMARK   3     T11:    0.0369 T22:   -0.0688                                    
REMARK   3     T33:    0.0275 T12:    0.1001                                    
REMARK   3     T13:    0.0306 T23:    0.0237                                    
REMARK   3    L TENSOR                                                          
REMARK   3     L11:    1.1503 L22:    1.2378                                    
REMARK   3     L33:    1.9151 L12:   -0.8426                                    
REMARK   3     L13:    0.4183 L23:   -0.0064                                    
REMARK   3    S TENSOR                                                          
REMARK   3     S11:    0.2412 S12:    0.1063 S13:    0.0712                     
REMARK   3     S21:   -0.1414 S22:   -0.2217 S23:    0.0624                     
REMARK   3     S31:    0.0440 S32:    0.1636 S33:   -0.0195                     
REMARK   3                                                                      
REMARK   3  REFINEMENT NOTES.                                                   
REMARK   3   NUMBER OF REFINEMENT NOTES :   1                                   
REMARK   3   NOTE   1 : IDEAL-DIST CONTACT TERM CONTACT SETUP. ALL ATOMS        
REMARK   3               HAVE CCP4 ATOM TYPE FROM LIBRARY                       
REMARK   3
REMARK   3  OTHER REFINEMENT REMARKS: NULL
REMARK   3
REMARK 290                                                            
REMARK 290 CRYSTALLOGRAPHIC SYMMETRY                                  
REMARK 290 SYMMETRY OPERATORS FOR SPACE GROUP: P 43 2 2               
REMARK 290                                                            
REMARK 290      SYMOP   SYMMETRY                                      
REMARK 290     NNNMMM   OPERATOR                                      
REMARK 290       1555   X,Y,Z                                         
REMARK 290       2555   -X,-Y,1/2+Z                                   
REMARK 290       3555   -Y,X,3/4+Z                                    
REMARK 290       4555   Y,-X,1/4+Z                                    
REMARK 290       5555   -X,Y,-Z                                       
REMARK 290       6555   X,-Y,1/2-Z                                    
REMARK 290       7555   Y,X,1/4-Z                                     
REMARK 290       8555   -Y,-X,3/4-Z                                   
REMARK 290                                                            
REMARK 290     WHERE NNN -> OPERATOR NUMBER                           
REMARK 290           MMM -> TRANSLATION VECTOR                        
REMARK 290                                                            
REMARK 290 CRYSTALLOGRAPHIC SYMMETRY TRANSFORMATIONS                  
REMARK 290 THE FOLLOWING TRANSFORMATIONS OPERATE ON THE ATOM/HETATM   
REMARK 290 RECORDS IN THIS ENTRY TO PRODUCE CRYSTALLOGRAPHICALLY      
REMARK 290 RELATED MOLECULES.                                         
REMARK 290   SMTRY1   1  1.000000  0.000000  0.000000        0.00000
REMARK 290   SMTRY2   1  0.000000  1.000000  0.000000        0.00000
REMARK 290   SMTRY3   1  0.000000  0.000000  1.000000        0.00000
REMARK 290   SMTRY1   2 -1.000000  0.000000  0.000000        0.00000
REMARK 290   SMTRY2   2  0.000000 -1.000000  0.000000        0.00000
REMARK 290   SMTRY3   2  0.000000  0.000000  1.000000      108.31550
REMARK 290   SMTRY1   3  0.000000 -1.000000  0.000000        0.00000
REMARK 290   SMTRY2   3  1.000000  0.000000  0.000000        0.00000
REMARK 290   SMTRY3   3  0.000000  0.000000  1.000000      162.47325
REMARK 290   SMTRY1   4  0.000000  1.000000  0.000000        0.00000
REMARK 290   SMTRY2   4 -1.000000  0.000000  0.000000        0.00000
REMARK 290   SMTRY3   4  0.000000  0.000000  1.000000       54.15775
REMARK 290   SMTRY1   5 -1.000000  0.000000  0.000000        0.00000
REMARK 290   SMTRY2   5  0.000000  1.000000  0.000000        0.00000
REMARK 290   SMTRY3   5  0.000000  0.000000 -1.000000        0.00000
REMARK 290   SMTRY1   6  1.000000  0.000000  0.000000        0.00000
REMARK 290   SMTRY2   6  0.000000 -1.000000  0.000000        0.00000
REMARK 290   SMTRY3   6  0.000000  0.000000 -1.000000      108.31550
REMARK 290   SMTRY1   7  0.000000  1.000000  0.000000        0.00000
REMARK 290   SMTRY2   7  1.000000  0.000000  0.000000        0.00000
REMARK 290   SMTRY3   7  0.000000  0.000000 -1.000000       54.15775
REMARK 290   SMTRY1   8  0.000000 -1.000000  0.000000        0.00000
REMARK 290   SMTRY2   8 -1.000000  0.000000  0.000000        0.00000
REMARK 290   SMTRY3   8  0.000000  0.000000 -1.000000      162.47325
REMARK 290                                                            
REMARK 290 REMARK: NULL                                               
CRYST1   42.300   42.300  216.631  90.00  90.00  90.00 P 43 2 2                 


$$$$
Zx0777a_ligand
  PyMOL3.0          3D                             0

 15 16  0  0  0  0  0  0  0  0999 V2000
   -9.2720   -9.8850   -8.2160 C   0  0  0  0  0  0  0  0  0  0  0  0
  -12.1870   -9.3940   -6.8430 N   0  0  0  0  0  0  0  0  0  0  0  0
   -8.5310  -10.5770   -7.2210 O   0  0  0  0  0  0  0  0  0  0  0  0
  -13.1000   -7.4640   -5.1660 S   0  0  0  0  0  0  0  0  0  0  0  0
  -10.6470  -10.5090   -8.5010 C   0  0  0  0  0  0  0  0  0  0  0  0
  -12.8810   -7.7420   -3.5330 N   0  0  0  0  0  0  0  0  0  0  0  0
  -11.3090   -9.7100   -9.6320 C   0  0  0  0  0  0  0  0  0  0  0  0
  -11.9270   -9.6150   -4.5180 N   0  0  0  0  0  0  0  0  0  0  0  0
  -10.5010  -11.9850   -8.9180 C   0  0  0  0  0  0  0  0  0  0  0  0
  -11.8660  -12.6160   -8.6450 C   0  0  0  0  0  0  0  0  0  0  0  0
  -12.5720  -11.7120   -7.6340 C   0  0  0  0  0  0  0  0  0  0  0  0
  -11.5440  -10.6410   -7.2490 C   0  0  0  0  0  0  0  0  0  0  0  0
  -12.3310   -8.9540   -5.5750 C   0  0  0  0  0  0  0  0  0  0  0  0
  -12.2650   -8.8920   -3.3990 C   0  0  0  0  0  0  0  0  0  0  0  0
  -11.9670   -9.3860   -2.0290 C   0  0  0  0  0  0  0  0  0  0  0  0
  1  5  1  0  0  0  0
  2 13  1  0  0  0  0
  1  3  1  0  0  0  0
  4  6  4  0  0  0  0
  5  7  1  0  0  0  0
  5  9  1  0  0  0  0
  5 12  1  0  0  0  0
  6 14  4  0  0  0  0
  8 14  4  0  0  0  0
  9 10  1  0  0  0  0
 10 11  1  0  0  0  0
 11 12  1  0  0  0  0
  2 12  1  0  0  0  0
  4 13  4  0  0  0  0
  8 13  4  0  0  0  0
 14 15  1  0  0  0  0
M  END
>  <pdb_header>
COMPND    XX01ZVNS2B-x0777_B_301_XX01ZVNS2B-x0777+B+301+1


$$$$
Zx0788a
  PyMOL3.0          3D                             0

 45 48  0  0  0  0  0  0  0  0999 V2000
   -4.3650    7.6050  -18.2510 N   0  0  0  0  0  0  0  0  0  0  0  0
   -3.2010    4.1630  -18.8320 C   0  0  0  0  0  0  0  0  0  0  0  0
   -2.5010    5.8270  -16.9670 O   0  0  0  0  0  0  0  0  0  0  0  0
   -4.7860    6.3690  -18.0640 C   0  0  0  0  0  0  0  0  0  0  0  0
   -6.0880    6.2250  -18.4710 N   0  0  0  0  0  0  0  0  0  0  0  0
   -4.3930    4.3130  -16.5250 O   0  0  0  0  0  0  0  0  0  0  0  0
  -10.4710    4.2500  -17.8720 S   0  0  0  0  0  0  0  0  0  0  0  0
   -5.4270    8.2720  -18.8140 C   0  0  0  0  0  0  0  0  0  0  0  0
   -8.1780    4.6700  -16.8240 N   0  0  0  0  0  0  0  0  0  0  0  0
   -6.4880    7.4470  -18.9580 C   0  0  0  0  0  0  0  0  0  0  0  0
   -6.6860    4.9430  -18.8260 C   0  0  0  0  0  0  0  0  0  0  0  0
   -8.0320    4.7500  -18.2000 C   0  0  0  0  0  0  0  0  0  0  0  0
   -9.1660    4.5570  -18.9090 C   0  0  0  0  0  0  0  0  0  0  0  0
   -9.4140    4.3940  -16.5370 C   0  0  0  0  0  0  0  0  0  0  0  0
   -3.6630    5.1350  -17.4470 S   0  0  0  0  0  0  0  0  0  0  0  0
   -8.5690   10.7750  -26.5210 N   0  0  0  0  0  0  0  0  0  0  0  0
   -6.5180    7.3560  -25.6830 C   0  0  0  0  0  0  0  0  0  0  0  0
   -5.5350    9.5010  -26.7650 O   0  0  0  0  0  0  0  0  0  0  0  0
   -8.1200    9.5320  -26.5360 C   0  0  0  0  0  0  0  0  0  0  0  0
   -9.0690    8.6810  -27.0410 N   0  0  0  0  0  0  0  0  0  0  0  0
   -6.5090    9.6670  -24.5100 O   0  0  0  0  0  0  0  0  0  0  0  0
   -8.5020    5.9370  -31.0470 S   0  0  0  0  0  0  0  0  0  0  0  0
   -9.8610   10.7090  -26.9920 C   0  0  0  0  0  0  0  0  0  0  0  0
   -7.1660    6.7570  -29.0320 N   0  0  0  0  0  0  0  0  0  0  0  0
  -10.1880    9.4350  -27.3060 C   0  0  0  0  0  0  0  0  0  0  0  0
   -8.9140    7.2560  -27.3220 C   0  0  0  0  0  0  0  0  0  0  0  0
   -8.5080    6.8630  -28.7120 C   0  0  0  0  0  0  0  0  0  0  0  0
   -9.3610    6.4790  -29.6880 C   0  0  0  0  0  0  0  0  0  0  0  0
   -7.0420    6.2670  -30.2280 C   0  0  0  0  0  0  0  0  0  0  0  0
   -6.5440    9.1020  -25.8290 S   0  0  0  0  0  0  0  0  0  0  0  0
   -4.7530    0.9870  -28.7390 N   0  0  0  0  0  0  0  0  0  0  0  0
   -4.3070   -1.9930  -28.2360 C   0  0  0  0  0  0  0  0  0  0  0  0
   -5.9530   -1.7270  -30.2250 O   0  0  0  0  0  0  0  0  0  0  0  0
   -5.8880    0.3240  -28.6430 C   0  0  0  0  0  0  0  0  0  0  0  0
   -6.9430    1.1820  -28.4490 N   0  0  0  0  0  0  0  0  0  0  0  0
   -6.8860   -1.9690  -27.9610 O   0  0  0  0  0  0  0  0  0  0  0  0
   -8.7610    2.1030  -32.5210 S   0  0  0  0  0  0  0  0  0  0  0  0
   -5.0890    2.3130  -28.6120 C   0  0  0  0  0  0  0  0  0  0  0  0
   -9.8930    2.1620  -30.2310 N   0  0  0  0  0  0  0  0  0  0  0  0
   -6.4210    2.4530  -28.4370 C   0  0  0  0  0  0  0  0  0  0  0  0
   -8.3240    0.8500  -28.7790 C   0  0  0  0  0  0  0  0  0  0  0  0
   -8.7260    1.4260  -30.1010 C   0  0  0  0  0  0  0  0  0  0  0  0
   -8.0030    1.2950  -31.2360 C   0  0  0  0  0  0  0  0  0  0  0  0
  -10.0150    2.5700  -31.4590 C   0  0  0  0  0  0  0  0  0  0  0  0
   -5.8670   -1.4460  -28.8210 S   0  0  0  0  0  0  0  0  0  0  0  0
  1  4  4  0  0  0  0
  4  5  4  0  0  0  0
  5 10  4  0  0  0  0
  5 11  1  0  0  0  0
  6 15  2  0  0  0  0
  7 13  4  0  0  0  0
  1  8  4  0  0  0  0
  9 14  4  0  0  0  0
  8 10  4  0  0  0  0
 11 12  1  0  0  0  0
  9 12  4  0  0  0  0
 12 13  4  0  0  0  0
  7 14  4  0  0  0  0
  2 15  1  0  0  0  0
  3 15  2  0  0  0  0
  4 15  1  0  0  0  0
 16 19  4  0  0  0  0
 19 20  4  0  0  0  0
 20 25  4  0  0  0  0
 20 26  1  0  0  0  0
 21 30  2  0  0  0  0
 22 28  4  0  0  0  0
 16 23  4  0  0  0  0
 24 29  4  0  0  0  0
 23 25  4  0  0  0  0
 26 27  1  0  0  0  0
 24 27  4  0  0  0  0
 27 28  4  0  0  0  0
 22 29  4  0  0  0  0
 17 30  1  0  0  0  0
 18 30  2  0  0  0  0
 19 30  1  0  0  0  0
 31 34  4  0  0  0  0
 34 35  4  0  0  0  0
 35 40  4  0  0  0  0
 35 41  1  0  0  0  0
 36 45  2  0  0  0  0
 37 43  4  0  0  0  0
 31 38  4  0  0  0  0
 39 44  4  0  0  0  0
 38 40  4  0  0  0  0
 41 42  1  0  0  0  0
 39 42  4  0  0  0  0
 42 43  4  0  0  0  0
 37 44  4  0  0  0  0
 32 45  1  0  0  0  0
 33 45  2  0  0  0  0
 34 45  1  0  0  0  0
M  END
>  <pdb_header>
HEADER    ----                                    18-MAY-23                     
TITLE     ---                                                                   
EXPDTA    X-RAY DIFFRACTION                                                     
REMARK --------------------- added by autoBUSTER ---------------------------------START
REMARK run at   = Fri Sep 29 18:18:49 BST 2023
REMARK     in   = /dls/labxchem/data/lb32627/lb32627-65/processing/analysis/model_building/XX01ZVNS2B-x0788
REMARK     user = kyf22269
REMARK     cmd  = \
REMARK            /dls_sw/apps/GPhL/BUSTER/20230726/autoBUSTER/bin/linux64/refine \
REMARK            -p \
REMARK            /dls/labxchem/data/lb32627/lb32627-65/processing/analysis/model_building/XX01ZVNS2B-x0788/cootOut/Refi
REMARK            -m \
REMARK            /dls/labxchem/data/lb32627/lb32627-65/processing/analysis/model_building/XX01ZVNS2B-x0788/XX01ZVNS2B-x
REMARK            -l \
REMARK            /dls/labxchem/data/lb32627/lb32627-65/processing/analysis/model_building/XX01ZVNS2B-x0788/Z1328968520.
REMARK            -autoncs -M TLSbasic -d Refine_9
REMARK Files used:
REMARK   PDB              = Refine_9/pdbchk.pdb
REMARK   MTZ              = /dls/labxchem/data/lb32627/lb32627-65/processing/analysis/model_building/XX01ZVNS2B-x0788/XX
REMARK output written to subdirectory = Refine_9
REMARK best refinement for F,SIGF with R/Rfree 0.2214/0.2489
REMARK header records are copied from input PDB file (apart from REMARK 3!)
REMARK --------------------- added by autoBUSTER -----------------------------------END
REMARK --------------------- added by autoBUSTER -------------------------------
REMARK run at   = Thu Jun 15 20:31:08 BST 2023                                  
REMARK     in   = /dls/labxchem/data/lb32627/lb32627-65/processing/analysis/mode
REMARK     user = xau79897                                                      
REMARK     cmd  = \                                                             
REMARK            /dls_sw/apps/GPhL/BUSTER/20230614/autoBUSTER/bin/linux64/refin
REMARK            -p \                                                          
REMARK            /dls/labxchem/data/lb32627/lb32627-65/processing/analysis/mode
REMARK            -m \                                                          
REMARK            /dls/labxchem/data/lb32627/lb32627-65/processing/analysis/mode
REMARK            -l \                                                          
REMARK            /dls/labxchem/data/lb32627/lb32627-65/processing/analysis/mode
REMARK            -autoncs -M TLSbasic StopOnGellySanityCheckError=no -d \      
REMARK            Refine_8                                                      
REMARK Files used:                                                              
REMARK   PDB              = Refine_8/pdbchk.pdb                                 
REMARK   MTZ              = /dls/labxchem/data/lb32627/lb32627-65/processing/ana
REMARK output written to subdirectory = Refine_8                                
REMARK best refinement for F,SIGF with R/Rfree 0.2204/0.2489                    
REMARK header records are copied from input PDB file (apart from REMARK 3!)     
REMARK --------------------- added by autoBUSTER -------------------------------
REMARK --------------------- added by autoBUSTER -------------------------------
REMARK run at   = Thu Jun  8 17:00:33 BST 2023                                  
REMARK     in   = /dls/labxchem/data/lb32627/lb32627-65/processing/analysis/mode
REMARK     user = ejx48977                                                      
REMARK     cmd  = \                                                             
REMARK            /dls_sw/apps/GPhL/BUSTER/20230217/autoBUSTER/bin/linux64/refin
REMARK            -p \                                                          
REMARK            /dls/labxchem/data/lb32627/lb32627-65/processing/analysis/mode
REMARK            -m \                                                          
REMARK            /dls/labxchem/data/lb32627/lb32627-65/processing/analysis/mode
REMARK            -l \                                                          
REMARK            /dls/labxchem/data/lb32627/lb32627-65/processing/analysis/mode
REMARK            -autoncs -M TLSbasic -d Refine_7                              
REMARK Files used:                                                              
REMARK   PDB              = Refine_7/pdbchk.pdb                                 
REMARK   MTZ              = /dls/labxchem/data/lb32627/lb32627-65/processing/ana
REMARK output written to subdirectory = Refine_7                                
REMARK best refinement for F,SIGF with R/Rfree 0.2213/0.2434                    
REMARK header records are copied from input PDB file (apart from REMARK 3!)     
REMARK --------------------- added by autoBUSTER -------------------------------
REMARK --------------------- added by autoBUSTER -------------------------------
REMARK run at   = Thu Jun  8 16:50:08 BST 2023                                  
REMARK     in   = /dls/labxchem/data/lb32627/lb32627-65/processing/analysis/mode
REMARK     user = ejx48977                                                      
REMARK     cmd  = \                                                             
REMARK            /dls_sw/apps/GPhL/BUSTER/20230217/autoBUSTER/bin/linux64/refin
REMARK            -p \                                                          
REMARK            /dls/labxchem/data/lb32627/lb32627-65/processing/analysis/mode
REMARK            -m \                                                          
REMARK            /dls/labxchem/data/lb32627/lb32627-65/processing/analysis/mode
REMARK            -l \                                                          
REMARK            /dls/labxchem/data/lb32627/lb32627-65/processing/analysis/mode
REMARK            -autoncs -M TLSbasic -WAT -d Refine_6                         
REMARK Files used:                                                              
REMARK   PDB              = Refine_6/pdbchk.pdb                                 
REMARK   MTZ              = /dls/labxchem/data/lb32627/lb32627-65/processing/ana
REMARK output written to subdirectory = Refine_6                                
REMARK best refinement for F,SIGF with R/Rfree 0.2198/0.2385                    
REMARK header records are copied from input PDB file (apart from REMARK 3!)     
REMARK --------------------- added by autoBUSTER -------------------------------
REMARK --------------------- added by autoBUSTER -------------------------------
REMARK run at   = Thu Jun  8 16:35:05 BST 2023                                  
REMARK     in   = /dls/labxchem/data/lb32627/lb32627-65/processing/analysis/mode
REMARK     user = ejx48977                                                      
REMARK     cmd  = \                                                             
REMARK            /dls_sw/apps/GPhL/BUSTER/20230217/autoBUSTER/bin/linux64/refin
REMARK            -p \                                                          
REMARK            /dls/labxchem/data/lb32627/lb32627-65/processing/analysis/mode
REMARK            -m \                                                          
REMARK            /dls/labxchem/data/lb32627/lb32627-65/processing/analysis/mode
REMARK            -l \                                                          
REMARK            /dls/labxchem/data/lb32627/lb32627-65/processing/analysis/mode
REMARK            -autoncs -M TLSbasic -WAT -B user -Gelly gelly.dat -d \       
REMARK            Refine_5                                                      
REMARK Files used:                                                              
REMARK   PDB              = Refine_5/pdbchk.pdb                                 
REMARK   MTZ              = /dls/labxchem/data/lb32627/lb32627-65/processing/ana
REMARK   Gelly commands       = /dls/labxchem/data/lb32627/lb32627-65/processing
REMARK output written to subdirectory = Refine_5                                
REMARK best refinement for F,SIGF with R/Rfree 0.2206/0.2402                    
REMARK header records are copied from input PDB file (apart from REMARK 3!)     
REMARK --------------------- added by autoBUSTER -------------------------------
REMARK --------------------- added by autoBUSTER -------------------------------
REMARK run at   = Tue May 23 17:14:06 BST 2023                                  
REMARK     in   = /dls/labxchem/data/lb32627/lb32627-65/processing/analysis/mode
REMARK     user = xau79897                                                      
REMARK     cmd  = \                                                             
REMARK            /dls_sw/apps/GPhL/BUSTER/20230217/autoBUSTER/bin/linux64/refin
REMARK            -p \                                                          
REMARK            /dls/labxchem/data/lb32627/lb32627-65/processing/analysis/mode
REMARK            -m \                                                          
REMARK            /dls/labxchem/data/lb32627/lb32627-65/processing/analysis/mode
REMARK            -l \                                                          
REMARK            /dls/labxchem/data/lb32627/lb32627-65/processing/analysis/mode
REMARK            -autoncs -M TLSbasic -d Refine_3                              
REMARK Files used:                                                              
REMARK   PDB              = Refine_3/pdbchk.pdb                                 
REMARK   MTZ              = /dls/labxchem/data/lb32627/lb32627-65/processing/ana
REMARK output written to subdirectory = Refine_3                                
REMARK best refinement for F,SIGF with R/Rfree 0.2322/0.2407                    
REMARK header records are copied from input PDB file (apart from REMARK 3!)     
REMARK --------------------- added by autoBUSTER -------------------------------
REMARK   2                                                            
REMARK   2 RESOLUTION.    1.40 ANGSTROMS.
REMARK   3
REMARK   3 REFINEMENT.
REMARK   3   PROGRAM     : BUSTER 2.10.4 (26-JUL-2023)
REMARK   3   AUTHORS     : BRICOGNE,BLANC,BRANDL,FLENSBURG,KELLER,
REMARK   3               : PACIOREK,ROVERSI,SHARFF,SMART,VONRHEIN,WOMACK;
REMARK   3               : MATTHEWS,TEN EYCK,TRONRUD
REMARK   3
REMARK   3  DATA USED IN REFINEMENT.
REMARK   3   RESOLUTION RANGE HIGH (ANGSTROMS) : 1.399
REMARK   3   RESOLUTION RANGE LOW  (ANGSTROMS) : 39.63
REMARK   3   DATA CUTOFF            (SIGMA(F)) : 0.000
REMARK   3   COMPLETENESS FOR RANGE        (%) : 97.6
REMARK   3   NUMBER OF REFLECTIONS             : 39912
REMARK   3
REMARK   3  FIT TO DATA USED IN REFINEMENT.
REMARK   3   CROSS-VALIDATION METHOD          : THROUGHOUT
REMARK   3   FREE R VALUE TEST SET SELECTION  : RANDOM
REMARK   3   R VALUE     (WORKING + TEST SET) : 0.2227
REMARK   3   R VALUE            (WORKING SET) : 0.2214
REMARK   3   FREE R VALUE                     : 0.2489
REMARK   3   FREE R VALUE TEST SET SIZE   (%) : 5.080
REMARK   3   FREE R VALUE TEST SET COUNT      : 2027
REMARK   3   ESTIMATED ERROR OF FREE R VALUE  : NULL
REMARK   3
REMARK   3  FIT IN THE HIGHEST RESOLUTION BIN.
REMARK   3   TOTAL NUMBER OF BINS USED           : 51
REMARK   3   BIN RESOLUTION RANGE HIGH       (A) : 1.40
REMARK   3   BIN RESOLUTION RANGE LOW        (A) : 1.41
REMARK   3   BIN COMPLETENESS (WORKING+TEST) (%) : 62.85
REMARK   3   REFLECTIONS IN BIN   (WORKING+TEST) : 799
REMARK   3   BIN R VALUE          (WORKING+TEST) : 0.4819
REMARK   3   REFLECTIONS IN BIN    (WORKING SET) : 757
REMARK   3   BIN R VALUE           (WORKING SET) : 0.4832
REMARK   3   BIN FREE R VALUE                    : 0.4580
REMARK   3   BIN FREE R VALUE TEST SET SIZE  (%) : 5.26
REMARK   3   BIN FREE R VALUE TEST SET COUNT     : 42
REMARK   3   ESTIMATED ERROR OF BIN FREE R VALUE : NULL
REMARK   3
REMARK   3  NUMBER OF NON-HYDROGEN ATOMS USED IN REFINEMENT.
REMARK   3   PROTEIN ATOMS            : 1476
REMARK   3   NUCLEIC ACID ATOMS       : 0
REMARK   3   HETEROGEN ATOMS          : 53
REMARK   3   SOLVENT ATOMS            : 149
REMARK   3
REMARK   3  B VALUES.
REMARK   3   FROM WILSON PLOT           (A**2) : 28.51
REMARK   3   MEAN B VALUE      (OVERALL, A**2) : 41.49
REMARK   3   OVERALL ANISOTROPIC B VALUE.
REMARK   3    B11 (A**2) : -3.64600
REMARK   3    B22 (A**2) : -3.64600
REMARK   3    B33 (A**2) : 7.29210
REMARK   3    B12 (A**2) : 0.00000
REMARK   3    B13 (A**2) : 0.00000
REMARK   3    B23 (A**2) : 0.00000
REMARK   3
REMARK   3  ESTIMATED COORDINATE ERROR.
REMARK   3   ESD FROM LUZZATI PLOT                    (A) : 0.25
REMARK   3   DPI (BLOW EQ-10) BASED ON R VALUE        (A) : 0.076
REMARK   3   DPI (BLOW EQ-9) BASED ON FREE R VALUE    (A) : 0.076
REMARK   3   DPI (CRUICKSHANK) BASED ON R VALUE       (A) : 0.071
REMARK   3   DPI (CRUICKSHANK) BASED ON FREE R VALUE  (A) : 0.073
REMARK   3
REMARK   3   REFERENCES: BLOW, D. (2002) ACTA CRYST D58, 792-797
REMARK   3               CRUICKSHANK, D.W.J. (1999) ACTA CRYST D55, 583-601
REMARK   3
REMARK   3  CORRELATION COEFFICIENTS.
REMARK   3   CORRELATION COEFFICIENT FO-FC      : 0.950
REMARK   3   CORRELATION COEFFICIENT FO-FC FREE : 0.950
REMARK   3
REMARK   3  X-RAY WEIGHT : 5.68
REMARK   3
REMARK   3  GEOMETRY FUNCTION.                                                  
REMARK   3   RESTRAINT LIBRARIES.                                               
REMARK   3    NUMBER OF LIBRARIES USED :   9                                    
REMARK   3    LIBRARY  1 : protgeo_eh99.dat (V1.6.4.20) 20220523  STANDARD      
REMARK   3                 AMINO ACID DICTIONARY. BONDS AND ANGLES FROM         
REMARK   3                 ENGH AND HUBER EH99. OTHER VALUES BASED ON           
REMARK   3                 PREVIOUS TNT OR TAKEN FROM CCP4. INCLUDES            
REMARK   3                 HYDROGEN ATOMS.                                      
REMARK   3    LIBRARY  2 : exoticaa.dat (V1.3.4.16) 20220523  COLLECTION        
REMARK   3                 OF NON-STANDARD AMINO ACIDS, MAINLY EH91             
REMARK   3                 WITHOUT IDEAL DISTANCE INFO                          
REMARK   3    LIBRARY  3 : nuclgeo.dat (V1.13.4.9) 20221011                     
REMARK   3    LIBRARY  4 : bcorrel.dat (V1.15.10.2) 20190616                    
REMARK   3    LIBRARY  5 : contact.dat (V1.15.12.10) 20191121                   
REMARK   3    LIBRARY  6 : idealdist_contact.dat (V1.3.4.14) 20230724           
REMARK   3                 IDEAL-DISTANCE CONTACT TERM DATA AS USED IN          
REMARK   3                 PROLSQ. VALUES USED HERE ARE BASEd ON DATA           
REMARK   3                 HARVESTING OF PDB AS OF 20190109                     
REMARK   3    LIBRARY  7 : restraints for LIG (unknown) from cif                
REMARK   3                 dictionary Z1328968520.cif; generated by GRADE       
REMARK   3                 1.2.21 (Feb 03 2022) from SMILES                     
REMARK   3                 CS(=O)(=O)c1nccn1Cc2cscn2 using MOGUL                
REMARK   3                 1.8.5(274361), CSD as541be, with quantum             
REMARK   3                 mechanics RM1                                        
REMARK   3    LIBRARY  8 : restraints for DMS (DIMETHYL SULFOXIDE) from         
REMARK   3                 cif dictionary DMS.cif; generated by grade2          
REMARK   3                 version 1.1.0a7 from                                 
REMARK   3                 PDB_chemical_components_definition_file              
REMARK   3                 ftp://ftp.ebi.ac.uk/pub/databases/msd/pdbechem_v     
REMARK   3                 2/D/DMS/DMS.cif using RDKit 2021.03.4                
REMARK   3                 ((DatabaseID PDB-DMS))                               
REMARK   3    LIBRARY  9 : assume.dat (V1.9.4.3) 20221011                       
REMARK   3                                                                      
REMARK   3   NUMBER OF GEOMETRIC FUNCTION TERMS DEFINED : 15                    
REMARK   3   TERM                          COUNT    WEIGHT   FUNCTION.          
REMARK   3    BOND LENGTHS              :   1617 ;   2.00 ;  HARMONIC           
REMARK   3    BOND ANGLES               :   2204 ;   2.00 ;  HARMONIC           
REMARK   3    TORSION ANGLES            :    538 ;   2.00 ;  SINUSOIDAL         
REMARK   3    TRIGONAL CARBON PLANES    :   NULL ;   NULL ;  NULL               
REMARK   3    GENERAL PLANES            :    304 ;   5.00 ;  HARMONIC           
REMARK   3    ISOTROPIC THERMAL FACTORS :   1617 ;  10.00 ;  HARMONIC           
REMARK   3    BAD NON-BONDED CONTACTS   :   NULL ;   NULL ;  NULL               
REMARK   3    IMPROPER TORSIONS         :   NULL ;   NULL ;  NULL               
REMARK   3    PSEUDOROTATION ANGLES     :   NULL ;   NULL ;  NULL               
REMARK   3    CHIRAL IMPROPER TORSION   :    194 ;   5.00 ;  SEMIHARMONIC       
REMARK   3    SUM OF OCCUPANCIES        :   NULL ;   NULL ;  NULL               
REMARK   3    UTILITY DISTANCES         :   NULL ;   NULL ;  NULL               
REMARK   3    UTILITY ANGLES            :   NULL ;   NULL ;  NULL               
REMARK   3    UTILITY TORSION           :   NULL ;   NULL ;  NULL               
REMARK   3    IDEAL-DIST CONTACT TERM   :   1394 ;   4.00 ;  SEMIHARMONIC       
REMARK   3                                                                      
REMARK   3   RMS DEVIATIONS FROM IDEAL VALUES.                                  
REMARK   3   BOND LENGTHS                       (A) : 0.011                     
REMARK   3   BOND ANGLES                  (DEGREES) : 1.04                      
REMARK   3   PEPTIDE OMEGA TORSION ANGLES (DEGREES) : 4.44                      
REMARK   3   OTHER TORSION ANGLES         (DEGREES) : 15.92                     
REMARK   3                                                                      
REMARK   3   SIMILARITY.                                                        
REMARK   3    NCS.                                                              
REMARK   3     NCS METHOD: NONE                                                 
REMARK   3    TARGET RESTRAINTS.                                                
REMARK   3     TARGET REPRESENTATION : NONE                                     
REMARK   3     TARGET STRUCTURE : NULL                                          
REMARK   3                                                                      
REMARK   3  TLS DETAILS.                                                        
REMARK   3   NUMBER OF TLS GROUPS  :            2                               
REMARK   3                                                                      
REMARK   3   TLS GROUP :            1                                           
REMARK   3    SET : { A|* }                                                     
REMARK   3    ORIGIN FOR THE GROUP (A):  -13.7786   -1.4353  -19.4921           
REMARK   3    T TENSOR                                                          
REMARK   3     T11:    0.0245 T22:    0.0089                                    
REMARK   3     T33:   -0.1158 T12:    0.1494                                    
REMARK   3     T13:    0.0647 T23:    0.0713                                    
REMARK   3    L TENSOR                                                          
REMARK   3     L11:    1.9516 L22:    1.9736                                    
REMARK   3     L33:    2.2387 L12:   -1.3485                                    
REMARK   3     L13:    0.2125 L23:    0.1960                                    
REMARK   3    S TENSOR                                                          
REMARK   3     S11:    0.3696 S12:    0.2846 S13:    0.2548                     
REMARK   3     S21:   -0.3498 S22:   -0.3354 S23:   -0.1614                     
REMARK   3     S31:    0.0632 S32:    0.3188 S33:   -0.0343                     
REMARK   3                                                                      
REMARK   3   TLS GROUP :            2                                           
REMARK   3    SET : { B|* }                                                     
REMARK   3    ORIGIN FOR THE GROUP (A):  -18.1420    1.3215  -15.7479           
REMARK   3    T TENSOR                                                          
REMARK   3     T11:    0.0611 T22:   -0.0054                                    
REMARK   3     T33:   -0.0240 T12:    0.1017                                    
REMARK   3     T13:    0.0283 T23:    0.0267                                    
REMARK   3    L TENSOR                                                          
REMARK   3     L11:    1.2284 L22:    0.7742                                    
REMARK   3     L33:    1.4961 L12:   -0.7433                                    
REMARK   3     L13:    0.1809 L23:   -0.0867                                    
REMARK   3    S TENSOR                                                          
REMARK   3     S11:    0.2391 S12:    0.0781 S13:    0.0880                     
REMARK   3     S21:   -0.0898 S22:   -0.2216 S23:    0.0189                     
REMARK   3     S31:    0.0506 S32:    0.1092 S33:   -0.0175                     
REMARK   3                                                                      
REMARK   3  REFINEMENT NOTES.                                                   
REMARK   3   NUMBER OF REFINEMENT NOTES :   1                                   
REMARK   3   NOTE   1 : IDEAL-DIST CONTACT TERM CONTACT SETUP. ALL ATOMS        
REMARK   3               HAVE CCP4 ATOM TYPE FROM LIBRARY                       
REMARK   3
REMARK   3  OTHER REFINEMENT REMARKS: NULL
REMARK   3
REMARK 290                                                            
REMARK 290 CRYSTALLOGRAPHIC SYMMETRY                                  
REMARK 290 SYMMETRY OPERATORS FOR SPACE GROUP: P 43 2 2               
REMARK 290                                                            
REMARK 290      SYMOP   SYMMETRY                                      
REMARK 290     NNNMMM   OPERATOR                                      
REMARK 290       1555   X,Y,Z                                         
REMARK 290       2555   -X,-Y,1/2+Z                                   
REMARK 290       3555   -Y,X,3/4+Z                                    
REMARK 290       4555   Y,-X,1/4+Z                                    
REMARK 290       5555   -X,Y,-Z                                       
REMARK 290       6555   X,-Y,1/2-Z                                    
REMARK 290       7555   Y,X,1/4-Z                                     
REMARK 290       8555   -Y,-X,3/4-Z                                   
REMARK 290                                                            
REMARK 290     WHERE NNN -> OPERATOR NUMBER                           
REMARK 290           MMM -> TRANSLATION VECTOR                        
REMARK 290                                                            
REMARK 290 CRYSTALLOGRAPHIC SYMMETRY TRANSFORMATIONS                  
REMARK 290 THE FOLLOWING TRANSFORMATIONS OPERATE ON THE ATOM/HETATM   
REMARK 290 RECORDS IN THIS ENTRY TO PRODUCE CRYSTALLOGRAPHICALLY      
REMARK 290 RELATED MOLECULES.                                         
REMARK 290   SMTRY1   1  1.000000  0.000000  0.000000        0.00000
REMARK 290   SMTRY2   1  0.000000  1.000000  0.000000        0.00000
REMARK 290   SMTRY3   1  0.000000  0.000000  1.000000        0.00000
REMARK 290   SMTRY1   2 -1.000000  0.000000  0.000000        0.00000
REMARK 290   SMTRY2   2  0.000000 -1.000000  0.000000        0.00000
REMARK 290   SMTRY3   2  0.000000  0.000000  1.000000      108.49650
REMARK 290   SMTRY1   3  0.000000 -1.000000  0.000000        0.00000
REMARK 290   SMTRY2   3  1.000000  0.000000  0.000000        0.00000
REMARK 290   SMTRY3   3  0.000000  0.000000  1.000000      162.74475
REMARK 290   SMTRY1   4  0.000000  1.000000  0.000000        0.00000
REMARK 290   SMTRY2   4 -1.000000  0.000000  0.000000        0.00000
REMARK 290   SMTRY3   4  0.000000  0.000000  1.000000       54.24825
REMARK 290   SMTRY1   5 -1.000000  0.000000  0.000000        0.00000
REMARK 290   SMTRY2   5  0.000000  1.000000  0.000000        0.00000
REMARK 290   SMTRY3   5  0.000000  0.000000 -1.000000        0.00000
REMARK 290   SMTRY1   6  1.000000  0.000000  0.000000        0.00000
REMARK 290   SMTRY2   6  0.000000 -1.000000  0.000000        0.00000
REMARK 290   SMTRY3   6  0.000000  0.000000 -1.000000      108.49650
REMARK 290   SMTRY1   7  0.000000  1.000000  0.000000        0.00000
REMARK 290   SMTRY2   7  1.000000  0.000000  0.000000        0.00000
REMARK 290   SMTRY3   7  0.000000  0.000000 -1.000000       54.24825
REMARK 290   SMTRY1   8  0.000000 -1.000000  0.000000        0.00000
REMARK 290   SMTRY2   8 -1.000000  0.000000  0.000000        0.00000
REMARK 290   SMTRY3   8  0.000000  0.000000 -1.000000      162.74475
REMARK 290                                                            
REMARK 290 REMARK: NULL                                               
CRYST1   42.574   42.574  216.993  90.00  90.00  90.00 P 43 2 2                 


$$$$
Zx0788a_ligand
  PyMOL3.0          3D                             0

 15 16  0  0  0  0  0  0  0  0999 V2000
   -3.2010    4.1630  -18.8320 C   0  0  0  0  0  0  0  0  0  0  0  0
   -6.0880    6.2250  -18.4710 N   0  0  0  0  0  0  0  0  0  0  0  0
   -4.3930    4.3130  -16.5250 O   0  0  0  0  0  0  0  0  0  0  0  0
   -3.6630    5.1350  -17.4470 S   0  0  0  0  0  0  0  0  0  0  0  0
   -4.7860    6.3690  -18.0640 C   0  0  0  0  0  0  0  0  0  0  0  0
   -4.3650    7.6050  -18.2510 N   0  0  0  0  0  0  0  0  0  0  0  0
   -2.5010    5.8270  -16.9670 O   0  0  0  0  0  0  0  0  0  0  0  0
  -10.4710    4.2500  -17.8720 S   0  0  0  0  0  0  0  0  0  0  0  0
   -6.4880    7.4470  -18.9580 C   0  0  0  0  0  0  0  0  0  0  0  0
   -8.1780    4.6700  -16.8240 N   0  0  0  0  0  0  0  0  0  0  0  0
   -5.4270    8.2720  -18.8140 C   0  0  0  0  0  0  0  0  0  0  0  0
   -6.6860    4.9430  -18.8260 C   0  0  0  0  0  0  0  0  0  0  0  0
   -8.0320    4.7500  -18.2000 C   0  0  0  0  0  0  0  0  0  0  0  0
   -9.4140    4.3940  -16.5370 C   0  0  0  0  0  0  0  0  0  0  0  0
   -9.1660    4.5570  -18.9090 C   0  0  0  0  0  0  0  0  0  0  0  0
  2  9  4  0  0  0  0
  2 12  1  0  0  0  0
  3  4  2  0  0  0  0
  1  4  1  0  0  0  0
  4  5  1  0  0  0  0
  4  7  2  0  0  0  0
  2  5  4  0  0  0  0
  5  6  4  0  0  0  0
  8 15  4  0  0  0  0
  9 11  4  0  0  0  0
 10 14  4  0  0  0  0
  6 11  4  0  0  0  0
 12 13  1  0  0  0  0
 10 13  4  0  0  0  0
 13 15  4  0  0  0  0
  8 14  4  0  0  0  0
M  END
>  <pdb_header>
COMPND    XX01ZVNS2B-x0788_B_301_XX01ZVNS2B-x1291+B+301+1


$$$$
Zx0788b
  PyMOL3.0          3D                             0

 45 48  0  0  0  0  0  0  0  0999 V2000
   -4.6110    8.1930  -18.3940 N   0  0  0  0  0  0  0  0  0  0  0  0
   -3.4310    4.7600  -18.9920 C   0  0  0  0  0  0  0  0  0  0  0  0
   -2.7200    6.4270  -17.1340 O   0  0  0  0  0  0  0  0  0  0  0  0
   -5.0220    6.9540  -18.2030 C   0  0  0  0  0  0  0  0  0  0  0  0
   -6.3270    6.8020  -18.5950 N   0  0  0  0  0  0  0  0  0  0  0  0
   -4.5970    4.9000  -16.6700 O   0  0  0  0  0  0  0  0  0  0  0  0
  -10.6900    4.7970  -17.9450 S   0  0  0  0  0  0  0  0  0  0  0  0
   -5.6840    8.8540  -18.9440 C   0  0  0  0  0  0  0  0  0  0  0  0
   -8.3870    5.2320  -16.9240 N   0  0  0  0  0  0  0  0  0  0  0  0
   -6.7410    8.0220  -19.0760 C   0  0  0  0  0  0  0  0  0  0  0  0
   -6.9210    5.5160  -18.9430 C   0  0  0  0  0  0  0  0  0  0  0  0
   -8.2580    5.3140  -18.3010 C   0  0  0  0  0  0  0  0  0  0  0  0
   -9.3990    5.1140  -18.9970 C   0  0  0  0  0  0  0  0  0  0  0  0
   -9.6180    4.9480  -16.6220 C   0  0  0  0  0  0  0  0  0  0  0  0
   -3.8830    5.7280  -17.6010 S   0  0  0  0  0  0  0  0  0  0  0  0
   -8.9350   11.3410  -26.6110 N   0  0  0  0  0  0  0  0  0  0  0  0
   -6.8510    7.9350  -25.8000 C   0  0  0  0  0  0  0  0  0  0  0  0
   -5.8960   10.0870  -26.8920 O   0  0  0  0  0  0  0  0  0  0  0  0
   -8.4780   10.1010  -26.6320 C   0  0  0  0  0  0  0  0  0  0  0  0
   -9.4270    9.2440  -27.1260 N   0  0  0  0  0  0  0  0  0  0  0  0
   -6.8440   10.2450  -24.6260 O   0  0  0  0  0  0  0  0  0  0  0  0
   -8.8900    6.5060  -31.1410 S   0  0  0  0  0  0  0  0  0  0  0  0
  -10.2320   11.2660  -27.0660 C   0  0  0  0  0  0  0  0  0  0  0  0
   -7.5350    7.3340  -29.1420 N   0  0  0  0  0  0  0  0  0  0  0  0
  -10.5540    9.9910  -27.3770 C   0  0  0  0  0  0  0  0  0  0  0  0
   -9.2660    7.8200  -27.4100 C   0  0  0  0  0  0  0  0  0  0  0  0
   -8.8740    7.4310  -28.8050 C   0  0  0  0  0  0  0  0  0  0  0  0
   -9.7360    7.0420  -29.7710 C   0  0  0  0  0  0  0  0  0  0  0  0
   -7.4220    6.8460  -30.3390 C   0  0  0  0  0  0  0  0  0  0  0  0
   -6.8910    9.6810  -25.9440 S   0  0  0  0  0  0  0  0  0  0  0  0
   -5.0810    1.5800  -28.8820 N   0  0  0  0  0  0  0  0  0  0  0  0
   -4.6090   -1.3970  -28.3860 C   0  0  0  0  0  0  0  0  0  0  0  0
   -6.2800   -1.1410  -30.3550 O   0  0  0  0  0  0  0  0  0  0  0  0
   -6.2100    0.9090  -28.7730 C   0  0  0  0  0  0  0  0  0  0  0  0
   -7.2680    1.7600  -28.5650 N   0  0  0  0  0  0  0  0  0  0  0  0
   -7.1850   -1.3910  -28.0800 O   0  0  0  0  0  0  0  0  0  0  0  0
   -9.1410    2.6720  -32.6150 S   0  0  0  0  0  0  0  0  0  0  0  0
   -5.4240    2.9040  -28.7500 C   0  0  0  0  0  0  0  0  0  0  0  0
  -10.2460    2.7220  -30.3110 N   0  0  0  0  0  0  0  0  0  0  0  0
   -6.7550    3.0350  -28.5590 C   0  0  0  0  0  0  0  0  0  0  0  0
   -8.6510    1.4190  -28.8790 C   0  0  0  0  0  0  0  0  0  0  0  0
   -9.0730    1.9930  -30.1960 C   0  0  0  0  0  0  0  0  0  0  0  0
   -8.3620    1.8680  -31.3390 C   0  0  0  0  0  0  0  0  0  0  0  0
  -10.3850    3.1300  -31.5370 C   0  0  0  0  0  0  0  0  0  0  0  0
   -6.1790   -0.8600  -28.9520 S   0  0  0  0  0  0  0  0  0  0  0  0
  1  4  4  0  0  0  0
  4  5  4  0  0  0  0
  5 10  4  0  0  0  0
  5 11  1  0  0  0  0
  6 15  2  0  0  0  0
  7 13  4  0  0  0  0
  1  8  4  0  0  0  0
  9 14  4  0  0  0  0
  8 10  4  0  0  0  0
 11 12  1  0  0  0  0
  9 12  4  0  0  0  0
 12 13  4  0  0  0  0
  7 14  4  0  0  0  0
  2 15  1  0  0  0  0
  3 15  2  0  0  0  0
  4 15  1  0  0  0  0
 16 19  4  0  0  0  0
 19 20  4  0  0  0  0
 20 25  4  0  0  0  0
 20 26  1  0  0  0  0
 21 30  2  0  0  0  0
 22 28  4  0  0  0  0
 16 23  4  0  0  0  0
 24 29  4  0  0  0  0
 23 25  4  0  0  0  0
 26 27  1  0  0  0  0
 24 27  4  0  0  0  0
 27 28  4  0  0  0  0
 22 29  4  0  0  0  0
 17 30  1  0  0  0  0
 18 30  2  0  0  0  0
 19 30  1  0  0  0  0
 31 34  4  0  0  0  0
 34 35  4  0  0  0  0
 35 40  4  0  0  0  0
 35 41  1  0  0  0  0
 36 45  2  0  0  0  0
 37 43  4  0  0  0  0
 31 38  4  0  0  0  0
 39 44  4  0  0  0  0
 38 40  4  0  0  0  0
 41 42  1  0  0  0  0
 39 42  4  0  0  0  0
 42 43  4  0  0  0  0
 37 44  4  0  0  0  0
 32 45  1  0  0  0  0
 33 45  2  0  0  0  0
 34 45  1  0  0  0  0
M  END
>  <pdb_header>
HEADER    ----                                    18-MAY-23                     
TITLE     ---                                                                   
EXPDTA    X-RAY DIFFRACTION                                                     
REMARK --------------------- added by autoBUSTER ---------------------------------START
REMARK run at   = Fri Sep 29 18:18:49 BST 2023
REMARK     in   = /dls/labxchem/data/lb32627/lb32627-65/processing/analysis/model_building/XX01ZVNS2B-x0788
REMARK     user = kyf22269
REMARK     cmd  = \
REMARK            /dls_sw/apps/GPhL/BUSTER/20230726/autoBUSTER/bin/linux64/refine \
REMARK            -p \
REMARK            /dls/labxchem/data/lb32627/lb32627-65/processing/analysis/model_building/XX01ZVNS2B-x0788/cootOut/Refi
REMARK            -m \
REMARK            /dls/labxchem/data/lb32627/lb32627-65/processing/analysis/model_building/XX01ZVNS2B-x0788/XX01ZVNS2B-x
REMARK            -l \
REMARK            /dls/labxchem/data/lb32627/lb32627-65/processing/analysis/model_building/XX01ZVNS2B-x0788/Z1328968520.
REMARK            -autoncs -M TLSbasic -d Refine_9
REMARK Files used:
REMARK   PDB              = Refine_9/pdbchk.pdb
REMARK   MTZ              = /dls/labxchem/data/lb32627/lb32627-65/processing/analysis/model_building/XX01ZVNS2B-x0788/XX
REMARK output written to subdirectory = Refine_9
REMARK best refinement for F,SIGF with R/Rfree 0.2214/0.2489
REMARK header records are copied from input PDB file (apart from REMARK 3!)
REMARK --------------------- added by autoBUSTER -----------------------------------END
REMARK --------------------- added by autoBUSTER -------------------------------
REMARK run at   = Thu Jun 15 20:31:08 BST 2023                                  
REMARK     in   = /dls/labxchem/data/lb32627/lb32627-65/processing/analysis/mode
REMARK     user = xau79897                                                      
REMARK     cmd  = \                                                             
REMARK            /dls_sw/apps/GPhL/BUSTER/20230614/autoBUSTER/bin/linux64/refin
REMARK            -p \                                                          
REMARK            /dls/labxchem/data/lb32627/lb32627-65/processing/analysis/mode
REMARK            -m \                                                          
REMARK            /dls/labxchem/data/lb32627/lb32627-65/processing/analysis/mode
REMARK            -l \                                                          
REMARK            /dls/labxchem/data/lb32627/lb32627-65/processing/analysis/mode
REMARK            -autoncs -M TLSbasic StopOnGellySanityCheckError=no -d \      
REMARK            Refine_8                                                      
REMARK Files used:                                                              
REMARK   PDB              = Refine_8/pdbchk.pdb                                 
REMARK   MTZ              = /dls/labxchem/data/lb32627/lb32627-65/processing/ana
REMARK output written to subdirectory = Refine_8                                
REMARK best refinement for F,SIGF with R/Rfree 0.2204/0.2489                    
REMARK header records are copied from input PDB file (apart from REMARK 3!)     
REMARK --------------------- added by autoBUSTER -------------------------------
REMARK --------------------- added by autoBUSTER -------------------------------
REMARK run at   = Thu Jun  8 17:00:33 BST 2023                                  
REMARK     in   = /dls/labxchem/data/lb32627/lb32627-65/processing/analysis/mode
REMARK     user = ejx48977                                                      
REMARK     cmd  = \                                                             
REMARK            /dls_sw/apps/GPhL/BUSTER/20230217/autoBUSTER/bin/linux64/refin
REMARK            -p \                                                          
REMARK            /dls/labxchem/data/lb32627/lb32627-65/processing/analysis/mode
REMARK            -m \                                                          
REMARK            /dls/labxchem/data/lb32627/lb32627-65/processing/analysis/mode
REMARK            -l \                                                          
REMARK            /dls/labxchem/data/lb32627/lb32627-65/processing/analysis/mode
REMARK            -autoncs -M TLSbasic -d Refine_7                              
REMARK Files used:                                                              
REMARK   PDB              = Refine_7/pdbchk.pdb                                 
REMARK   MTZ              = /dls/labxchem/data/lb32627/lb32627-65/processing/ana
REMARK output written to subdirectory = Refine_7                                
REMARK best refinement for F,SIGF with R/Rfree 0.2213/0.2434                    
REMARK header records are copied from input PDB file (apart from REMARK 3!)     
REMARK --------------------- added by autoBUSTER -------------------------------
REMARK --------------------- added by autoBUSTER -------------------------------
REMARK run at   = Thu Jun  8 16:50:08 BST 2023                                  
REMARK     in   = /dls/labxchem/data/lb32627/lb32627-65/processing/analysis/mode
REMARK     user = ejx48977                                                      
REMARK     cmd  = \                                                             
REMARK            /dls_sw/apps/GPhL/BUSTER/20230217/autoBUSTER/bin/linux64/refin
REMARK            -p \                                                          
REMARK            /dls/labxchem/data/lb32627/lb32627-65/processing/analysis/mode
REMARK            -m \                                                          
REMARK            /dls/labxchem/data/lb32627/lb32627-65/processing/analysis/mode
REMARK            -l \                                                          
REMARK            /dls/labxchem/data/lb32627/lb32627-65/processing/analysis/mode
REMARK            -autoncs -M TLSbasic -WAT -d Refine_6                         
REMARK Files used:                                                              
REMARK   PDB              = Refine_6/pdbchk.pdb                                 
REMARK   MTZ              = /dls/labxchem/data/lb32627/lb32627-65/processing/ana
REMARK output written to subdirectory = Refine_6                                
REMARK best refinement for F,SIGF with R/Rfree 0.2198/0.2385                    
REMARK header records are copied from input PDB file (apart from REMARK 3!)     
REMARK --------------------- added by autoBUSTER -------------------------------
REMARK --------------------- added by autoBUSTER -------------------------------
REMARK run at   = Thu Jun  8 16:35:05 BST 2023                                  
REMARK     in   = /dls/labxchem/data/lb32627/lb32627-65/processing/analysis/mode
REMARK     user = ejx48977                                                      
REMARK     cmd  = \                                                             
REMARK            /dls_sw/apps/GPhL/BUSTER/20230217/autoBUSTER/bin/linux64/refin
REMARK            -p \                                                          
REMARK            /dls/labxchem/data/lb32627/lb32627-65/processing/analysis/mode
REMARK            -m \                                                          
REMARK            /dls/labxchem/data/lb32627/lb32627-65/processing/analysis/mode
REMARK            -l \                                                          
REMARK            /dls/labxchem/data/lb32627/lb32627-65/processing/analysis/mode
REMARK            -autoncs -M TLSbasic -WAT -B user -Gelly gelly.dat -d \       
REMARK            Refine_5                                                      
REMARK Files used:                                                              
REMARK   PDB              = Refine_5/pdbchk.pdb                                 
REMARK   MTZ              = /dls/labxchem/data/lb32627/lb32627-65/processing/ana
REMARK   Gelly commands       = /dls/labxchem/data/lb32627/lb32627-65/processing
REMARK output written to subdirectory = Refine_5                                
REMARK best refinement for F,SIGF with R/Rfree 0.2206/0.2402                    
REMARK header records are copied from input PDB file (apart from REMARK 3!)     
REMARK --------------------- added by autoBUSTER -------------------------------
REMARK --------------------- added by autoBUSTER -------------------------------
REMARK run at   = Tue May 23 17:14:06 BST 2023                                  
REMARK     in   = /dls/labxchem/data/lb32627/lb32627-65/processing/analysis/mode
REMARK     user = xau79897                                                      
REMARK     cmd  = \                                                             
REMARK            /dls_sw/apps/GPhL/BUSTER/20230217/autoBUSTER/bin/linux64/refin
REMARK            -p \                                                          
REMARK            /dls/labxchem/data/lb32627/lb32627-65/processing/analysis/mode
REMARK            -m \                                                          
REMARK            /dls/labxchem/data/lb32627/lb32627-65/processing/analysis/mode
REMARK            -l \                                                          
REMARK            /dls/labxchem/data/lb32627/lb32627-65/processing/analysis/mode
REMARK            -autoncs -M TLSbasic -d Refine_3                              
REMARK Files used:                                                              
REMARK   PDB              = Refine_3/pdbchk.pdb                                 
REMARK   MTZ              = /dls/labxchem/data/lb32627/lb32627-65/processing/ana
REMARK output written to subdirectory = Refine_3                                
REMARK best refinement for F,SIGF with R/Rfree 0.2322/0.2407                    
REMARK header records are copied from input PDB file (apart from REMARK 3!)     
REMARK --------------------- added by autoBUSTER -------------------------------
REMARK   2                                                            
REMARK   2 RESOLUTION.    1.40 ANGSTROMS.
REMARK   3
REMARK   3 REFINEMENT.
REMARK   3   PROGRAM     : BUSTER 2.10.4 (26-JUL-2023)
REMARK   3   AUTHORS     : BRICOGNE,BLANC,BRANDL,FLENSBURG,KELLER,
REMARK   3               : PACIOREK,ROVERSI,SHARFF,SMART,VONRHEIN,WOMACK;
REMARK   3               : MATTHEWS,TEN EYCK,TRONRUD
REMARK   3
REMARK   3  DATA USED IN REFINEMENT.
REMARK   3   RESOLUTION RANGE HIGH (ANGSTROMS) : 1.399
REMARK   3   RESOLUTION RANGE LOW  (ANGSTROMS) : 39.63
REMARK   3   DATA CUTOFF            (SIGMA(F)) : 0.000
REMARK   3   COMPLETENESS FOR RANGE        (%) : 97.6
REMARK   3   NUMBER OF REFLECTIONS             : 39912
REMARK   3
REMARK   3  FIT TO DATA USED IN REFINEMENT.
REMARK   3   CROSS-VALIDATION METHOD          : THROUGHOUT
REMARK   3   FREE R VALUE TEST SET SELECTION  : RANDOM
REMARK   3   R VALUE     (WORKING + TEST SET) : 0.2227
REMARK   3   R VALUE            (WORKING SET) : 0.2214
REMARK   3   FREE R VALUE                     : 0.2489
REMARK   3   FREE R VALUE TEST SET SIZE   (%) : 5.080
REMARK   3   FREE R VALUE TEST SET COUNT      : 2027
REMARK   3   ESTIMATED ERROR OF FREE R VALUE  : NULL
REMARK   3
REMARK   3  FIT IN THE HIGHEST RESOLUTION BIN.
REMARK   3   TOTAL NUMBER OF BINS USED           : 51
REMARK   3   BIN RESOLUTION RANGE HIGH       (A) : 1.40
REMARK   3   BIN RESOLUTION RANGE LOW        (A) : 1.41
REMARK   3   BIN COMPLETENESS (WORKING+TEST) (%) : 62.85
REMARK   3   REFLECTIONS IN BIN   (WORKING+TEST) : 799
REMARK   3   BIN R VALUE          (WORKING+TEST) : 0.4819
REMARK   3   REFLECTIONS IN BIN    (WORKING SET) : 757
REMARK   3   BIN R VALUE           (WORKING SET) : 0.4832
REMARK   3   BIN FREE R VALUE                    : 0.4580
REMARK   3   BIN FREE R VALUE TEST SET SIZE  (%) : 5.26
REMARK   3   BIN FREE R VALUE TEST SET COUNT     : 42
REMARK   3   ESTIMATED ERROR OF BIN FREE R VALUE : NULL
REMARK   3
REMARK   3  NUMBER OF NON-HYDROGEN ATOMS USED IN REFINEMENT.
REMARK   3   PROTEIN ATOMS            : 1476
REMARK   3   NUCLEIC ACID ATOMS       : 0
REMARK   3   HETEROGEN ATOMS          : 53
REMARK   3   SOLVENT ATOMS            : 149
REMARK   3
REMARK   3  B VALUES.
REMARK   3   FROM WILSON PLOT           (A**2) : 28.51
REMARK   3   MEAN B VALUE      (OVERALL, A**2) : 41.49
REMARK   3   OVERALL ANISOTROPIC B VALUE.
REMARK   3    B11 (A**2) : -3.64600
REMARK   3    B22 (A**2) : -3.64600
REMARK   3    B33 (A**2) : 7.29210
REMARK   3    B12 (A**2) : 0.00000
REMARK   3    B13 (A**2) : 0.00000
REMARK   3    B23 (A**2) : 0.00000
REMARK   3
REMARK   3  ESTIMATED COORDINATE ERROR.
REMARK   3   ESD FROM LUZZATI PLOT                    (A) : 0.25
REMARK   3   DPI (BLOW EQ-10) BASED ON R VALUE        (A) : 0.076
REMARK   3   DPI (BLOW EQ-9) BASED ON FREE R VALUE    (A) : 0.076
REMARK   3   DPI (CRUICKSHANK) BASED ON R VALUE       (A) : 0.071
REMARK   3   DPI (CRUICKSHANK) BASED ON FREE R VALUE  (A) : 0.073
REMARK   3
REMARK   3   REFERENCES: BLOW, D. (2002) ACTA CRYST D58, 792-797
REMARK   3               CRUICKSHANK, D.W.J. (1999) ACTA CRYST D55, 583-601
REMARK   3
REMARK   3  CORRELATION COEFFICIENTS.
REMARK   3   CORRELATION COEFFICIENT FO-FC      : 0.950
REMARK   3   CORRELATION COEFFICIENT FO-FC FREE : 0.950
REMARK   3
REMARK   3  X-RAY WEIGHT : 5.68
REMARK   3
REMARK   3  GEOMETRY FUNCTION.                                                  
REMARK   3   RESTRAINT LIBRARIES.                                               
REMARK   3    NUMBER OF LIBRARIES USED :   9                                    
REMARK   3    LIBRARY  1 : protgeo_eh99.dat (V1.6.4.20) 20220523  STANDARD      
REMARK   3                 AMINO ACID DICTIONARY. BONDS AND ANGLES FROM         
REMARK   3                 ENGH AND HUBER EH99. OTHER VALUES BASED ON           
REMARK   3                 PREVIOUS TNT OR TAKEN FROM CCP4. INCLUDES            
REMARK   3                 HYDROGEN ATOMS.                                      
REMARK   3    LIBRARY  2 : exoticaa.dat (V1.3.4.16) 20220523  COLLECTION        
REMARK   3                 OF NON-STANDARD AMINO ACIDS, MAINLY EH91             
REMARK   3                 WITHOUT IDEAL DISTANCE INFO                          
REMARK   3    LIBRARY  3 : nuclgeo.dat (V1.13.4.9) 20221011                     
REMARK   3    LIBRARY  4 : bcorrel.dat (V1.15.10.2) 20190616                    
REMARK   3    LIBRARY  5 : contact.dat (V1.15.12.10) 20191121                   
REMARK   3    LIBRARY  6 : idealdist_contact.dat (V1.3.4.14) 20230724           
REMARK   3                 IDEAL-DISTANCE CONTACT TERM DATA AS USED IN          
REMARK   3                 PROLSQ. VALUES USED HERE ARE BASEd ON DATA           
REMARK   3                 HARVESTING OF PDB AS OF 20190109                     
REMARK   3    LIBRARY  7 : restraints for LIG (unknown) from cif                
REMARK   3                 dictionary Z1328968520.cif; generated by GRADE       
REMARK   3                 1.2.21 (Feb 03 2022) from SMILES                     
REMARK   3                 CS(=O)(=O)c1nccn1Cc2cscn2 using MOGUL                
REMARK   3                 1.8.5(274361), CSD as541be, with quantum             
REMARK   3                 mechanics RM1                                        
REMARK   3    LIBRARY  8 : restraints for DMS (DIMETHYL SULFOXIDE) from         
REMARK   3                 cif dictionary DMS.cif; generated by grade2          
REMARK   3                 version 1.1.0a7 from                                 
REMARK   3                 PDB_chemical_components_definition_file              
REMARK   3                 ftp://ftp.ebi.ac.uk/pub/databases/msd/pdbechem_v     
REMARK   3                 2/D/DMS/DMS.cif using RDKit 2021.03.4                
REMARK   3                 ((DatabaseID PDB-DMS))                               
REMARK   3    LIBRARY  9 : assume.dat (V1.9.4.3) 20221011                       
REMARK   3                                                                      
REMARK   3   NUMBER OF GEOMETRIC FUNCTION TERMS DEFINED : 15                    
REMARK   3   TERM                          COUNT    WEIGHT   FUNCTION.          
REMARK   3    BOND LENGTHS              :   1617 ;   2.00 ;  HARMONIC           
REMARK   3    BOND ANGLES               :   2204 ;   2.00 ;  HARMONIC           
REMARK   3    TORSION ANGLES            :    538 ;   2.00 ;  SINUSOIDAL         
REMARK   3    TRIGONAL CARBON PLANES    :   NULL ;   NULL ;  NULL               
REMARK   3    GENERAL PLANES            :    304 ;   5.00 ;  HARMONIC           
REMARK   3    ISOTROPIC THERMAL FACTORS :   1617 ;  10.00 ;  HARMONIC           
REMARK   3    BAD NON-BONDED CONTACTS   :   NULL ;   NULL ;  NULL               
REMARK   3    IMPROPER TORSIONS         :   NULL ;   NULL ;  NULL               
REMARK   3    PSEUDOROTATION ANGLES     :   NULL ;   NULL ;  NULL               
REMARK   3    CHIRAL IMPROPER TORSION   :    194 ;   5.00 ;  SEMIHARMONIC       
REMARK   3    SUM OF OCCUPANCIES        :   NULL ;   NULL ;  NULL               
REMARK   3    UTILITY DISTANCES         :   NULL ;   NULL ;  NULL               
REMARK   3    UTILITY ANGLES            :   NULL ;   NULL ;  NULL               
REMARK   3    UTILITY TORSION           :   NULL ;   NULL ;  NULL               
REMARK   3    IDEAL-DIST CONTACT TERM   :   1394 ;   4.00 ;  SEMIHARMONIC       
REMARK   3                                                                      
REMARK   3   RMS DEVIATIONS FROM IDEAL VALUES.                                  
REMARK   3   BOND LENGTHS                       (A) : 0.011                     
REMARK   3   BOND ANGLES                  (DEGREES) : 1.04                      
REMARK   3   PEPTIDE OMEGA TORSION ANGLES (DEGREES) : 4.44                      
REMARK   3   OTHER TORSION ANGLES         (DEGREES) : 15.92                     
REMARK   3                                                                      
REMARK   3   SIMILARITY.                                                        
REMARK   3    NCS.                                                              
REMARK   3     NCS METHOD: NONE                                                 
REMARK   3    TARGET RESTRAINTS.                                                
REMARK   3     TARGET REPRESENTATION : NONE                                     
REMARK   3     TARGET STRUCTURE : NULL                                          
REMARK   3                                                                      
REMARK   3  TLS DETAILS.                                                        
REMARK   3   NUMBER OF TLS GROUPS  :            2                               
REMARK   3                                                                      
REMARK   3   TLS GROUP :            1                                           
REMARK   3    SET : { A|* }                                                     
REMARK   3    ORIGIN FOR THE GROUP (A):  -13.7786   -1.4353  -19.4921           
REMARK   3    T TENSOR                                                          
REMARK   3     T11:    0.0245 T22:    0.0089                                    
REMARK   3     T33:   -0.1158 T12:    0.1494                                    
REMARK   3     T13:    0.0647 T23:    0.0713                                    
REMARK   3    L TENSOR                                                          
REMARK   3     L11:    1.9516 L22:    1.9736                                    
REMARK   3     L33:    2.2387 L12:   -1.3485                                    
REMARK   3     L13:    0.2125 L23:    0.1960                                    
REMARK   3    S TENSOR                                                          
REMARK   3     S11:    0.3696 S12:    0.2846 S13:    0.2548                     
REMARK   3     S21:   -0.3498 S22:   -0.3354 S23:   -0.1614                     
REMARK   3     S31:    0.0632 S32:    0.3188 S33:   -0.0343                     
REMARK   3                                                                      
REMARK   3   TLS GROUP :            2                                           
REMARK   3    SET : { B|* }                                                     
REMARK   3    ORIGIN FOR THE GROUP (A):  -18.1420    1.3215  -15.7479           
REMARK   3    T TENSOR                                                          
REMARK   3     T11:    0.0611 T22:   -0.0054                                    
REMARK   3     T33:   -0.0240 T12:    0.1017                                    
REMARK   3     T13:    0.0283 T23:    0.0267                                    
REMARK   3    L TENSOR                                                          
REMARK   3     L11:    1.2284 L22:    0.7742                                    
REMARK   3     L33:    1.4961 L12:   -0.7433                                    
REMARK   3     L13:    0.1809 L23:   -0.0867                                    
REMARK   3    S TENSOR                                                          
REMARK   3     S11:    0.2391 S12:    0.0781 S13:    0.0880                     
REMARK   3     S21:   -0.0898 S22:   -0.2216 S23:    0.0189                     
REMARK   3     S31:    0.0506 S32:    0.1092 S33:   -0.0175                     
REMARK   3                                                                      
REMARK   3  REFINEMENT NOTES.                                                   
REMARK   3   NUMBER OF REFINEMENT NOTES :   1                                   
REMARK   3   NOTE   1 : IDEAL-DIST CONTACT TERM CONTACT SETUP. ALL ATOMS        
REMARK   3               HAVE CCP4 ATOM TYPE FROM LIBRARY                       
REMARK   3
REMARK   3  OTHER REFINEMENT REMARKS: NULL
REMARK   3
REMARK 290                                                            
REMARK 290 CRYSTALLOGRAPHIC SYMMETRY                                  
REMARK 290 SYMMETRY OPERATORS FOR SPACE GROUP: P 43 2 2               
REMARK 290                                                            
REMARK 290      SYMOP   SYMMETRY                                      
REMARK 290     NNNMMM   OPERATOR                                      
REMARK 290       1555   X,Y,Z                                         
REMARK 290       2555   -X,-Y,1/2+Z                                   
REMARK 290       3555   -Y,X,3/4+Z                                    
REMARK 290       4555   Y,-X,1/4+Z                                    
REMARK 290       5555   -X,Y,-Z                                       
REMARK 290       6555   X,-Y,1/2-Z                                    
REMARK 290       7555   Y,X,1/4-Z                                     
REMARK 290       8555   -Y,-X,3/4-Z                                   
REMARK 290                                                            
REMARK 290     WHERE NNN -> OPERATOR NUMBER                           
REMARK 290           MMM -> TRANSLATION VECTOR                        
REMARK 290                                                            
REMARK 290 CRYSTALLOGRAPHIC SYMMETRY TRANSFORMATIONS                  
REMARK 290 THE FOLLOWING TRANSFORMATIONS OPERATE ON THE ATOM/HETATM   
REMARK 290 RECORDS IN THIS ENTRY TO PRODUCE CRYSTALLOGRAPHICALLY      
REMARK 290 RELATED MOLECULES.                                         
REMARK 290   SMTRY1   1  1.000000  0.000000  0.000000        0.00000
REMARK 290   SMTRY2   1  0.000000  1.000000  0.000000        0.00000
REMARK 290   SMTRY3   1  0.000000  0.000000  1.000000        0.00000
REMARK 290   SMTRY1   2 -1.000000  0.000000  0.000000        0.00000
REMARK 290   SMTRY2   2  0.000000 -1.000000  0.000000        0.00000
REMARK 290   SMTRY3   2  0.000000  0.000000  1.000000      108.49650
REMARK 290   SMTRY1   3  0.000000 -1.000000  0.000000        0.00000
REMARK 290   SMTRY2   3  1.000000  0.000000  0.000000        0.00000
REMARK 290   SMTRY3   3  0.000000  0.000000  1.000000      162.74475
REMARK 290   SMTRY1   4  0.000000  1.000000  0.000000        0.00000
REMARK 290   SMTRY2   4 -1.000000  0.000000  0.000000        0.00000
REMARK 290   SMTRY3   4  0.000000  0.000000  1.000000       54.24825
REMARK 290   SMTRY1   5 -1.000000  0.000000  0.000000        0.00000
REMARK 290   SMTRY2   5  0.000000  1.000000  0.000000        0.00000
REMARK 290   SMTRY3   5  0.000000  0.000000 -1.000000        0.00000
REMARK 290   SMTRY1   6  1.000000  0.000000  0.000000        0.00000
REMARK 290   SMTRY2   6  0.000000 -1.000000  0.000000        0.00000
REMARK 290   SMTRY3   6  0.000000  0.000000 -1.000000      108.49650
REMARK 290   SMTRY1   7  0.000000  1.000000  0.000000        0.00000
REMARK 290   SMTRY2   7  1.000000  0.000000  0.000000        0.00000
REMARK 290   SMTRY3   7  0.000000  0.000000 -1.000000       54.24825
REMARK 290   SMTRY1   8  0.000000 -1.000000  0.000000        0.00000
REMARK 290   SMTRY2   8 -1.000000  0.000000  0.000000        0.00000
REMARK 290   SMTRY3   8  0.000000  0.000000 -1.000000      162.74475
REMARK 290                                                            
REMARK 290 REMARK: NULL                                               
CRYST1   42.574   42.574  216.993  90.00  90.00  90.00 P 43 2 2                 


$$$$
Zx0788b_ligand
  PyMOL3.0          3D                             0

 15 16  0  0  0  0  0  0  0  0999 V2000
   -6.8510    7.9350  -25.8000 C   0  0  0  0  0  0  0  0  0  0  0  0
   -9.4270    9.2440  -27.1260 N   0  0  0  0  0  0  0  0  0  0  0  0
   -6.8440   10.2450  -24.6260 O   0  0  0  0  0  0  0  0  0  0  0  0
   -6.8910    9.6810  -25.9440 S   0  0  0  0  0  0  0  0  0  0  0  0
   -8.4780   10.1010  -26.6320 C   0  0  0  0  0  0  0  0  0  0  0  0
   -8.9350   11.3410  -26.6110 N   0  0  0  0  0  0  0  0  0  0  0  0
   -5.8960   10.0870  -26.8920 O   0  0  0  0  0  0  0  0  0  0  0  0
   -8.8900    6.5060  -31.1410 S   0  0  0  0  0  0  0  0  0  0  0  0
  -10.5540    9.9910  -27.3770 C   0  0  0  0  0  0  0  0  0  0  0  0
   -7.5350    7.3340  -29.1420 N   0  0  0  0  0  0  0  0  0  0  0  0
  -10.2320   11.2660  -27.0660 C   0  0  0  0  0  0  0  0  0  0  0  0
   -9.2660    7.8200  -27.4100 C   0  0  0  0  0  0  0  0  0  0  0  0
   -8.8740    7.4310  -28.8050 C   0  0  0  0  0  0  0  0  0  0  0  0
   -7.4220    6.8460  -30.3390 C   0  0  0  0  0  0  0  0  0  0  0  0
   -9.7360    7.0420  -29.7710 C   0  0  0  0  0  0  0  0  0  0  0  0
  2  9  4  0  0  0  0
  2 12  1  0  0  0  0
  3  4  2  0  0  0  0
  1  4  1  0  0  0  0
  4  5  1  0  0  0  0
  4  7  2  0  0  0  0
  2  5  4  0  0  0  0
  5  6  4  0  0  0  0
  8 15  4  0  0  0  0
  9 11  4  0  0  0  0
 10 14  4  0  0  0  0
  6 11  4  0  0  0  0
 12 13  1  0  0  0  0
 10 13  4  0  0  0  0
 13 15  4  0  0  0  0
  8 14  4  0  0  0  0
M  END
>  <pdb_header>
COMPND    XX01ZVNS2B-x0788_B_302_XX01ZVNS2B-x0788+B+302+1


$$$$
Zx0788c
  PyMOL3.0          3D                             0

 45 48  0  0  0  0  0  0  0  0999 V2000
   -4.6110    8.1930  -18.3940 N   0  0  0  0  0  0  0  0  0  0  0  0
   -3.4310    4.7600  -18.9920 C   0  0  0  0  0  0  0  0  0  0  0  0
   -2.7200    6.4270  -17.1340 O   0  0  0  0  0  0  0  0  0  0  0  0
   -5.0220    6.9540  -18.2030 C   0  0  0  0  0  0  0  0  0  0  0  0
   -6.3270    6.8020  -18.5950 N   0  0  0  0  0  0  0  0  0  0  0  0
   -4.5970    4.9000  -16.6700 O   0  0  0  0  0  0  0  0  0  0  0  0
  -10.6900    4.7970  -17.9450 S   0  0  0  0  0  0  0  0  0  0  0  0
   -5.6840    8.8540  -18.9440 C   0  0  0  0  0  0  0  0  0  0  0  0
   -8.3870    5.2320  -16.9240 N   0  0  0  0  0  0  0  0  0  0  0  0
   -6.7410    8.0220  -19.0760 C   0  0  0  0  0  0  0  0  0  0  0  0
   -6.9210    5.5160  -18.9430 C   0  0  0  0  0  0  0  0  0  0  0  0
   -8.2580    5.3140  -18.3010 C   0  0  0  0  0  0  0  0  0  0  0  0
   -9.3990    5.1140  -18.9970 C   0  0  0  0  0  0  0  0  0  0  0  0
   -9.6180    4.9480  -16.6220 C   0  0  0  0  0  0  0  0  0  0  0  0
   -3.8830    5.7280  -17.6010 S   0  0  0  0  0  0  0  0  0  0  0  0
   -8.9350   11.3410  -26.6110 N   0  0  0  0  0  0  0  0  0  0  0  0
   -6.8510    7.9350  -25.8000 C   0  0  0  0  0  0  0  0  0  0  0  0
   -5.8960   10.0870  -26.8920 O   0  0  0  0  0  0  0  0  0  0  0  0
   -8.4780   10.1010  -26.6320 C   0  0  0  0  0  0  0  0  0  0  0  0
   -9.4270    9.2440  -27.1260 N   0  0  0  0  0  0  0  0  0  0  0  0
   -6.8440   10.2450  -24.6260 O   0  0  0  0  0  0  0  0  0  0  0  0
   -8.8900    6.5060  -31.1410 S   0  0  0  0  0  0  0  0  0  0  0  0
  -10.2320   11.2660  -27.0660 C   0  0  0  0  0  0  0  0  0  0  0  0
   -7.5350    7.3340  -29.1420 N   0  0  0  0  0  0  0  0  0  0  0  0
  -10.5540    9.9910  -27.3770 C   0  0  0  0  0  0  0  0  0  0  0  0
   -9.2660    7.8200  -27.4100 C   0  0  0  0  0  0  0  0  0  0  0  0
   -8.8740    7.4310  -28.8050 C   0  0  0  0  0  0  0  0  0  0  0  0
   -9.7360    7.0420  -29.7710 C   0  0  0  0  0  0  0  0  0  0  0  0
   -7.4220    6.8460  -30.3390 C   0  0  0  0  0  0  0  0  0  0  0  0
   -6.8910    9.6810  -25.9440 S   0  0  0  0  0  0  0  0  0  0  0  0
   -5.0810    1.5800  -28.8820 N   0  0  0  0  0  0  0  0  0  0  0  0
   -4.6090   -1.3970  -28.3860 C   0  0  0  0  0  0  0  0  0  0  0  0
   -6.2800   -1.1410  -30.3550 O   0  0  0  0  0  0  0  0  0  0  0  0
   -6.2100    0.9090  -28.7730 C   0  0  0  0  0  0  0  0  0  0  0  0
   -7.2680    1.7600  -28.5650 N   0  0  0  0  0  0  0  0  0  0  0  0
   -7.1850   -1.3910  -28.0800 O   0  0  0  0  0  0  0  0  0  0  0  0
   -9.1410    2.6720  -32.6150 S   0  0  0  0  0  0  0  0  0  0  0  0
   -5.4240    2.9040  -28.7500 C   0  0  0  0  0  0  0  0  0  0  0  0
  -10.2460    2.7220  -30.3110 N   0  0  0  0  0  0  0  0  0  0  0  0
   -6.7550    3.0350  -28.5590 C   0  0  0  0  0  0  0  0  0  0  0  0
   -8.6510    1.4190  -28.8790 C   0  0  0  0  0  0  0  0  0  0  0  0
   -9.0730    1.9930  -30.1960 C   0  0  0  0  0  0  0  0  0  0  0  0
   -8.3620    1.8680  -31.3390 C   0  0  0  0  0  0  0  0  0  0  0  0
  -10.3850    3.1300  -31.5370 C   0  0  0  0  0  0  0  0  0  0  0  0
   -6.1790   -0.8600  -28.9520 S   0  0  0  0  0  0  0  0  0  0  0  0
  1  4  4  0  0  0  0
  4  5  4  0  0  0  0
  5 10  4  0  0  0  0
  5 11  1  0  0  0  0
  6 15  2  0  0  0  0
  7 13  4  0  0  0  0
  1  8  4  0  0  0  0
  9 14  4  0  0  0  0
  8 10  4  0  0  0  0
 11 12  1  0  0  0  0
  9 12  4  0  0  0  0
 12 13  4  0  0  0  0
  7 14  4  0  0  0  0
  2 15  1  0  0  0  0
  3 15  2  0  0  0  0
  4 15  1  0  0  0  0
 16 19  4  0  0  0  0
 19 20  4  0  0  0  0
 20 25  4  0  0  0  0
 20 26  1  0  0  0  0
 21 30  2  0  0  0  0
 22 28  4  0  0  0  0
 16 23  4  0  0  0  0
 24 29  4  0  0  0  0
 23 25  4  0  0  0  0
 26 27  1  0  0  0  0
 24 27  4  0  0  0  0
 27 28  4  0  0  0  0
 22 29  4  0  0  0  0
 17 30  1  0  0  0  0
 18 30  2  0  0  0  0
 19 30  1  0  0  0  0
 31 34  4  0  0  0  0
 34 35  4  0  0  0  0
 35 40  4  0  0  0  0
 35 41  1  0  0  0  0
 36 45  2  0  0  0  0
 37 43  4  0  0  0  0
 31 38  4  0  0  0  0
 39 44  4  0  0  0  0
 38 40  4  0  0  0  0
 41 42  1  0  0  0  0
 39 42  4  0  0  0  0
 42 43  4  0  0  0  0
 37 44  4  0  0  0  0
 32 45  1  0  0  0  0
 33 45  2  0  0  0  0
 34 45  1  0  0  0  0
M  END
>  <pdb_header>
HEADER    ----                                    18-MAY-23                     
TITLE     ---                                                                   
EXPDTA    X-RAY DIFFRACTION                                                     
REMARK --------------------- added by autoBUSTER ---------------------------------START
REMARK run at   = Fri Sep 29 18:18:49 BST 2023
REMARK     in   = /dls/labxchem/data/lb32627/lb32627-65/processing/analysis/model_building/XX01ZVNS2B-x0788
REMARK     user = kyf22269
REMARK     cmd  = \
REMARK            /dls_sw/apps/GPhL/BUSTER/20230726/autoBUSTER/bin/linux64/refine \
REMARK            -p \
REMARK            /dls/labxchem/data/lb32627/lb32627-65/processing/analysis/model_building/XX01ZVNS2B-x0788/cootOut/Refi
REMARK            -m \
REMARK            /dls/labxchem/data/lb32627/lb32627-65/processing/analysis/model_building/XX01ZVNS2B-x0788/XX01ZVNS2B-x
REMARK            -l \
REMARK            /dls/labxchem/data/lb32627/lb32627-65/processing/analysis/model_building/XX01ZVNS2B-x0788/Z1328968520.
REMARK            -autoncs -M TLSbasic -d Refine_9
REMARK Files used:
REMARK   PDB              = Refine_9/pdbchk.pdb
REMARK   MTZ              = /dls/labxchem/data/lb32627/lb32627-65/processing/analysis/model_building/XX01ZVNS2B-x0788/XX
REMARK output written to subdirectory = Refine_9
REMARK best refinement for F,SIGF with R/Rfree 0.2214/0.2489
REMARK header records are copied from input PDB file (apart from REMARK 3!)
REMARK --------------------- added by autoBUSTER -----------------------------------END
REMARK --------------------- added by autoBUSTER -------------------------------
REMARK run at   = Thu Jun 15 20:31:08 BST 2023                                  
REMARK     in   = /dls/labxchem/data/lb32627/lb32627-65/processing/analysis/mode
REMARK     user = xau79897                                                      
REMARK     cmd  = \                                                             
REMARK            /dls_sw/apps/GPhL/BUSTER/20230614/autoBUSTER/bin/linux64/refin
REMARK            -p \                                                          
REMARK            /dls/labxchem/data/lb32627/lb32627-65/processing/analysis/mode
REMARK            -m \                                                          
REMARK            /dls/labxchem/data/lb32627/lb32627-65/processing/analysis/mode
REMARK            -l \                                                          
REMARK            /dls/labxchem/data/lb32627/lb32627-65/processing/analysis/mode
REMARK            -autoncs -M TLSbasic StopOnGellySanityCheckError=no -d \      
REMARK            Refine_8                                                      
REMARK Files used:                                                              
REMARK   PDB              = Refine_8/pdbchk.pdb                                 
REMARK   MTZ              = /dls/labxchem/data/lb32627/lb32627-65/processing/ana
REMARK output written to subdirectory = Refine_8                                
REMARK best refinement for F,SIGF with R/Rfree 0.2204/0.2489                    
REMARK header records are copied from input PDB file (apart from REMARK 3!)     
REMARK --------------------- added by autoBUSTER -------------------------------
REMARK --------------------- added by autoBUSTER -------------------------------
REMARK run at   = Thu Jun  8 17:00:33 BST 2023                                  
REMARK     in   = /dls/labxchem/data/lb32627/lb32627-65/processing/analysis/mode
REMARK     user = ejx48977                                                      
REMARK     cmd  = \                                                             
REMARK            /dls_sw/apps/GPhL/BUSTER/20230217/autoBUSTER/bin/linux64/refin
REMARK            -p \                                                          
REMARK            /dls/labxchem/data/lb32627/lb32627-65/processing/analysis/mode
REMARK            -m \                                                          
REMARK            /dls/labxchem/data/lb32627/lb32627-65/processing/analysis/mode
REMARK            -l \                                                          
REMARK            /dls/labxchem/data/lb32627/lb32627-65/processing/analysis/mode
REMARK            -autoncs -M TLSbasic -d Refine_7                              
REMARK Files used:                                                              
REMARK   PDB              = Refine_7/pdbchk.pdb                                 
REMARK   MTZ              = /dls/labxchem/data/lb32627/lb32627-65/processing/ana
REMARK output written to subdirectory = Refine_7                                
REMARK best refinement for F,SIGF with R/Rfree 0.2213/0.2434                    
REMARK header records are copied from input PDB file (apart from REMARK 3!)     
REMARK --------------------- added by autoBUSTER -------------------------------
REMARK --------------------- added by autoBUSTER -------------------------------
REMARK run at   = Thu Jun  8 16:50:08 BST 2023                                  
REMARK     in   = /dls/labxchem/data/lb32627/lb32627-65/processing/analysis/mode
REMARK     user = ejx48977                                                      
REMARK     cmd  = \                                                             
REMARK            /dls_sw/apps/GPhL/BUSTER/20230217/autoBUSTER/bin/linux64/refin
REMARK            -p \                                                          
REMARK            /dls/labxchem/data/lb32627/lb32627-65/processing/analysis/mode
REMARK            -m \                                                          
REMARK            /dls/labxchem/data/lb32627/lb32627-65/processing/analysis/mode
REMARK            -l \                                                          
REMARK            /dls/labxchem/data/lb32627/lb32627-65/processing/analysis/mode
REMARK            -autoncs -M TLSbasic -WAT -d Refine_6                         
REMARK Files used:                                                              
REMARK   PDB              = Refine_6/pdbchk.pdb                                 
REMARK   MTZ              = /dls/labxchem/data/lb32627/lb32627-65/processing/ana
REMARK output written to subdirectory = Refine_6                                
REMARK best refinement for F,SIGF with R/Rfree 0.2198/0.2385                    
REMARK header records are copied from input PDB file (apart from REMARK 3!)     
REMARK --------------------- added by autoBUSTER -------------------------------
REMARK --------------------- added by autoBUSTER -------------------------------
REMARK run at   = Thu Jun  8 16:35:05 BST 2023                                  
REMARK     in   = /dls/labxchem/data/lb32627/lb32627-65/processing/analysis/mode
REMARK     user = ejx48977                                                      
REMARK     cmd  = \                                                             
REMARK            /dls_sw/apps/GPhL/BUSTER/20230217/autoBUSTER/bin/linux64/refin
REMARK            -p \                                                          
REMARK            /dls/labxchem/data/lb32627/lb32627-65/processing/analysis/mode
REMARK            -m \                                                          
REMARK            /dls/labxchem/data/lb32627/lb32627-65/processing/analysis/mode
REMARK            -l \                                                          
REMARK            /dls/labxchem/data/lb32627/lb32627-65/processing/analysis/mode
REMARK            -autoncs -M TLSbasic -WAT -B user -Gelly gelly.dat -d \       
REMARK            Refine_5                                                      
REMARK Files used:                                                              
REMARK   PDB              = Refine_5/pdbchk.pdb                                 
REMARK   MTZ              = /dls/labxchem/data/lb32627/lb32627-65/processing/ana
REMARK   Gelly commands       = /dls/labxchem/data/lb32627/lb32627-65/processing
REMARK output written to subdirectory = Refine_5                                
REMARK best refinement for F,SIGF with R/Rfree 0.2206/0.2402                    
REMARK header records are copied from input PDB file (apart from REMARK 3!)     
REMARK --------------------- added by autoBUSTER -------------------------------
REMARK --------------------- added by autoBUSTER -------------------------------
REMARK run at   = Tue May 23 17:14:06 BST 2023                                  
REMARK     in   = /dls/labxchem/data/lb32627/lb32627-65/processing/analysis/mode
REMARK     user = xau79897                                                      
REMARK     cmd  = \                                                             
REMARK            /dls_sw/apps/GPhL/BUSTER/20230217/autoBUSTER/bin/linux64/refin
REMARK            -p \                                                          
REMARK            /dls/labxchem/data/lb32627/lb32627-65/processing/analysis/mode
REMARK            -m \                                                          
REMARK            /dls/labxchem/data/lb32627/lb32627-65/processing/analysis/mode
REMARK            -l \                                                          
REMARK            /dls/labxchem/data/lb32627/lb32627-65/processing/analysis/mode
REMARK            -autoncs -M TLSbasic -d Refine_3                              
REMARK Files used:                                                              
REMARK   PDB              = Refine_3/pdbchk.pdb                                 
REMARK   MTZ              = /dls/labxchem/data/lb32627/lb32627-65/processing/ana
REMARK output written to subdirectory = Refine_3                                
REMARK best refinement for F,SIGF with R/Rfree 0.2322/0.2407                    
REMARK header records are copied from input PDB file (apart from REMARK 3!)     
REMARK --------------------- added by autoBUSTER -------------------------------
REMARK   2                                                            
REMARK   2 RESOLUTION.    1.40 ANGSTROMS.
REMARK   3
REMARK   3 REFINEMENT.
REMARK   3   PROGRAM     : BUSTER 2.10.4 (26-JUL-2023)
REMARK   3   AUTHORS     : BRICOGNE,BLANC,BRANDL,FLENSBURG,KELLER,
REMARK   3               : PACIOREK,ROVERSI,SHARFF,SMART,VONRHEIN,WOMACK;
REMARK   3               : MATTHEWS,TEN EYCK,TRONRUD
REMARK   3
REMARK   3  DATA USED IN REFINEMENT.
REMARK   3   RESOLUTION RANGE HIGH (ANGSTROMS) : 1.399
REMARK   3   RESOLUTION RANGE LOW  (ANGSTROMS) : 39.63
REMARK   3   DATA CUTOFF            (SIGMA(F)) : 0.000
REMARK   3   COMPLETENESS FOR RANGE        (%) : 97.6
REMARK   3   NUMBER OF REFLECTIONS             : 39912
REMARK   3
REMARK   3  FIT TO DATA USED IN REFINEMENT.
REMARK   3   CROSS-VALIDATION METHOD          : THROUGHOUT
REMARK   3   FREE R VALUE TEST SET SELECTION  : RANDOM
REMARK   3   R VALUE     (WORKING + TEST SET) : 0.2227
REMARK   3   R VALUE            (WORKING SET) : 0.2214
REMARK   3   FREE R VALUE                     : 0.2489
REMARK   3   FREE R VALUE TEST SET SIZE   (%) : 5.080
REMARK   3   FREE R VALUE TEST SET COUNT      : 2027
REMARK   3   ESTIMATED ERROR OF FREE R VALUE  : NULL
REMARK   3
REMARK   3  FIT IN THE HIGHEST RESOLUTION BIN.
REMARK   3   TOTAL NUMBER OF BINS USED           : 51
REMARK   3   BIN RESOLUTION RANGE HIGH       (A) : 1.40
REMARK   3   BIN RESOLUTION RANGE LOW        (A) : 1.41
REMARK   3   BIN COMPLETENESS (WORKING+TEST) (%) : 62.85
REMARK   3   REFLECTIONS IN BIN   (WORKING+TEST) : 799
REMARK   3   BIN R VALUE          (WORKING+TEST) : 0.4819
REMARK   3   REFLECTIONS IN BIN    (WORKING SET) : 757
REMARK   3   BIN R VALUE           (WORKING SET) : 0.4832
REMARK   3   BIN FREE R VALUE                    : 0.4580
REMARK   3   BIN FREE R VALUE TEST SET SIZE  (%) : 5.26
REMARK   3   BIN FREE R VALUE TEST SET COUNT     : 42
REMARK   3   ESTIMATED ERROR OF BIN FREE R VALUE : NULL
REMARK   3
REMARK   3  NUMBER OF NON-HYDROGEN ATOMS USED IN REFINEMENT.
REMARK   3   PROTEIN ATOMS            : 1476
REMARK   3   NUCLEIC ACID ATOMS       : 0
REMARK   3   HETEROGEN ATOMS          : 53
REMARK   3   SOLVENT ATOMS            : 149
REMARK   3
REMARK   3  B VALUES.
REMARK   3   FROM WILSON PLOT           (A**2) : 28.51
REMARK   3   MEAN B VALUE      (OVERALL, A**2) : 41.49
REMARK   3   OVERALL ANISOTROPIC B VALUE.
REMARK   3    B11 (A**2) : -3.64600
REMARK   3    B22 (A**2) : -3.64600
REMARK   3    B33 (A**2) : 7.29210
REMARK   3    B12 (A**2) : 0.00000
REMARK   3    B13 (A**2) : 0.00000
REMARK   3    B23 (A**2) : 0.00000
REMARK   3
REMARK   3  ESTIMATED COORDINATE ERROR.
REMARK   3   ESD FROM LUZZATI PLOT                    (A) : 0.25
REMARK   3   DPI (BLOW EQ-10) BASED ON R VALUE        (A) : 0.076
REMARK   3   DPI (BLOW EQ-9) BASED ON FREE R VALUE    (A) : 0.076
REMARK   3   DPI (CRUICKSHANK) BASED ON R VALUE       (A) : 0.071
REMARK   3   DPI (CRUICKSHANK) BASED ON FREE R VALUE  (A) : 0.073
REMARK   3
REMARK   3   REFERENCES: BLOW, D. (2002) ACTA CRYST D58, 792-797
REMARK   3               CRUICKSHANK, D.W.J. (1999) ACTA CRYST D55, 583-601
REMARK   3
REMARK   3  CORRELATION COEFFICIENTS.
REMARK   3   CORRELATION COEFFICIENT FO-FC      : 0.950
REMARK   3   CORRELATION COEFFICIENT FO-FC FREE : 0.950
REMARK   3
REMARK   3  X-RAY WEIGHT : 5.68
REMARK   3
REMARK   3  GEOMETRY FUNCTION.                                                  
REMARK   3   RESTRAINT LIBRARIES.                                               
REMARK   3    NUMBER OF LIBRARIES USED :   9                                    
REMARK   3    LIBRARY  1 : protgeo_eh99.dat (V1.6.4.20) 20220523  STANDARD      
REMARK   3                 AMINO ACID DICTIONARY. BONDS AND ANGLES FROM         
REMARK   3                 ENGH AND HUBER EH99. OTHER VALUES BASED ON           
REMARK   3                 PREVIOUS TNT OR TAKEN FROM CCP4. INCLUDES            
REMARK   3                 HYDROGEN ATOMS.                                      
REMARK   3    LIBRARY  2 : exoticaa.dat (V1.3.4.16) 20220523  COLLECTION        
REMARK   3                 OF NON-STANDARD AMINO ACIDS, MAINLY EH91             
REMARK   3                 WITHOUT IDEAL DISTANCE INFO                          
REMARK   3    LIBRARY  3 : nuclgeo.dat (V1.13.4.9) 20221011                     
REMARK   3    LIBRARY  4 : bcorrel.dat (V1.15.10.2) 20190616                    
REMARK   3    LIBRARY  5 : contact.dat (V1.15.12.10) 20191121                   
REMARK   3    LIBRARY  6 : idealdist_contact.dat (V1.3.4.14) 20230724           
REMARK   3                 IDEAL-DISTANCE CONTACT TERM DATA AS USED IN          
REMARK   3                 PROLSQ. VALUES USED HERE ARE BASEd ON DATA           
REMARK   3                 HARVESTING OF PDB AS OF 20190109                     
REMARK   3    LIBRARY  7 : restraints for LIG (unknown) from cif                
REMARK   3                 dictionary Z1328968520.cif; generated by GRADE       
REMARK   3                 1.2.21 (Feb 03 2022) from SMILES                     
REMARK   3                 CS(=O)(=O)c1nccn1Cc2cscn2 using MOGUL                
REMARK   3                 1.8.5(274361), CSD as541be, with quantum             
REMARK   3                 mechanics RM1                                        
REMARK   3    LIBRARY  8 : restraints for DMS (DIMETHYL SULFOXIDE) from         
REMARK   3                 cif dictionary DMS.cif; generated by grade2          
REMARK   3                 version 1.1.0a7 from                                 
REMARK   3                 PDB_chemical_components_definition_file              
REMARK   3                 ftp://ftp.ebi.ac.uk/pub/databases/msd/pdbechem_v     
REMARK   3                 2/D/DMS/DMS.cif using RDKit 2021.03.4                
REMARK   3                 ((DatabaseID PDB-DMS))                               
REMARK   3    LIBRARY  9 : assume.dat (V1.9.4.3) 20221011                       
REMARK   3                                                                      
REMARK   3   NUMBER OF GEOMETRIC FUNCTION TERMS DEFINED : 15                    
REMARK   3   TERM                          COUNT    WEIGHT   FUNCTION.          
REMARK   3    BOND LENGTHS              :   1617 ;   2.00 ;  HARMONIC           
REMARK   3    BOND ANGLES               :   2204 ;   2.00 ;  HARMONIC           
REMARK   3    TORSION ANGLES            :    538 ;   2.00 ;  SINUSOIDAL         
REMARK   3    TRIGONAL CARBON PLANES    :   NULL ;   NULL ;  NULL               
REMARK   3    GENERAL PLANES            :    304 ;   5.00 ;  HARMONIC           
REMARK   3    ISOTROPIC THERMAL FACTORS :   1617 ;  10.00 ;  HARMONIC           
REMARK   3    BAD NON-BONDED CONTACTS   :   NULL ;   NULL ;  NULL               
REMARK   3    IMPROPER TORSIONS         :   NULL ;   NULL ;  NULL               
REMARK   3    PSEUDOROTATION ANGLES     :   NULL ;   NULL ;  NULL               
REMARK   3    CHIRAL IMPROPER TORSION   :    194 ;   5.00 ;  SEMIHARMONIC       
REMARK   3    SUM OF OCCUPANCIES        :   NULL ;   NULL ;  NULL               
REMARK   3    UTILITY DISTANCES         :   NULL ;   NULL ;  NULL               
REMARK   3    UTILITY ANGLES            :   NULL ;   NULL ;  NULL               
REMARK   3    UTILITY TORSION           :   NULL ;   NULL ;  NULL               
REMARK   3    IDEAL-DIST CONTACT TERM   :   1394 ;   4.00 ;  SEMIHARMONIC       
REMARK   3                                                                      
REMARK   3   RMS DEVIATIONS FROM IDEAL VALUES.                                  
REMARK   3   BOND LENGTHS                       (A) : 0.011                     
REMARK   3   BOND ANGLES                  (DEGREES) : 1.04                      
REMARK   3   PEPTIDE OMEGA TORSION ANGLES (DEGREES) : 4.44                      
REMARK   3   OTHER TORSION ANGLES         (DEGREES) : 15.92                     
REMARK   3                                                                      
REMARK   3   SIMILARITY.                                                        
REMARK   3    NCS.                                                              
REMARK   3     NCS METHOD: NONE                                                 
REMARK   3    TARGET RESTRAINTS.                                                
REMARK   3     TARGET REPRESENTATION : NONE                                     
REMARK   3     TARGET STRUCTURE : NULL                                          
REMARK   3                                                                      
REMARK   3  TLS DETAILS.                                                        
REMARK   3   NUMBER OF TLS GROUPS  :            2                               
REMARK   3                                                                      
REMARK   3   TLS GROUP :            1                                           
REMARK   3    SET : { A|* }                                                     
REMARK   3    ORIGIN FOR THE GROUP (A):  -13.7786   -1.4353  -19.4921           
REMARK   3    T TENSOR                                                          
REMARK   3     T11:    0.0245 T22:    0.0089                                    
REMARK   3     T33:   -0.1158 T12:    0.1494                                    
REMARK   3     T13:    0.0647 T23:    0.0713                                    
REMARK   3    L TENSOR                                                          
REMARK   3     L11:    1.9516 L22:    1.9736                                    
REMARK   3     L33:    2.2387 L12:   -1.3485                                    
REMARK   3     L13:    0.2125 L23:    0.1960                                    
REMARK   3    S TENSOR                                                          
REMARK   3     S11:    0.3696 S12:    0.2846 S13:    0.2548                     
REMARK   3     S21:   -0.3498 S22:   -0.3354 S23:   -0.1614                     
REMARK   3     S31:    0.0632 S32:    0.3188 S33:   -0.0343                     
REMARK   3                                                                      
REMARK   3   TLS GROUP :            2                                           
REMARK   3    SET : { B|* }                                                     
REMARK   3    ORIGIN FOR THE GROUP (A):  -18.1420    1.3215  -15.7479           
REMARK   3    T TENSOR                                                          
REMARK   3     T11:    0.0611 T22:   -0.0054                                    
REMARK   3     T33:   -0.0240 T12:    0.1017                                    
REMARK   3     T13:    0.0283 T23:    0.0267                                    
REMARK   3    L TENSOR                                                          
REMARK   3     L11:    1.2284 L22:    0.7742                                    
REMARK   3     L33:    1.4961 L12:   -0.7433                                    
REMARK   3     L13:    0.1809 L23:   -0.0867                                    
REMARK   3    S TENSOR                                                          
REMARK   3     S11:    0.2391 S12:    0.0781 S13:    0.0880                     
REMARK   3     S21:   -0.0898 S22:   -0.2216 S23:    0.0189                     
REMARK   3     S31:    0.0506 S32:    0.1092 S33:   -0.0175                     
REMARK   3                                                                      
REMARK   3  REFINEMENT NOTES.                                                   
REMARK   3   NUMBER OF REFINEMENT NOTES :   1                                   
REMARK   3   NOTE   1 : IDEAL-DIST CONTACT TERM CONTACT SETUP. ALL ATOMS        
REMARK   3               HAVE CCP4 ATOM TYPE FROM LIBRARY                       
REMARK   3
REMARK   3  OTHER REFINEMENT REMARKS: NULL
REMARK   3
REMARK 290                                                            
REMARK 290 CRYSTALLOGRAPHIC SYMMETRY                                  
REMARK 290 SYMMETRY OPERATORS FOR SPACE GROUP: P 43 2 2               
REMARK 290                                                            
REMARK 290      SYMOP   SYMMETRY                                      
REMARK 290     NNNMMM   OPERATOR                                      
REMARK 290       1555   X,Y,Z                                         
REMARK 290       2555   -X,-Y,1/2+Z                                   
REMARK 290       3555   -Y,X,3/4+Z                                    
REMARK 290       4555   Y,-X,1/4+Z                                    
REMARK 290       5555   -X,Y,-Z                                       
REMARK 290       6555   X,-Y,1/2-Z                                    
REMARK 290       7555   Y,X,1/4-Z                                     
REMARK 290       8555   -Y,-X,3/4-Z                                   
REMARK 290                                                            
REMARK 290     WHERE NNN -> OPERATOR NUMBER                           
REMARK 290           MMM -> TRANSLATION VECTOR                        
REMARK 290                                                            
REMARK 290 CRYSTALLOGRAPHIC SYMMETRY TRANSFORMATIONS                  
REMARK 290 THE FOLLOWING TRANSFORMATIONS OPERATE ON THE ATOM/HETATM   
REMARK 290 RECORDS IN THIS ENTRY TO PRODUCE CRYSTALLOGRAPHICALLY      
REMARK 290 RELATED MOLECULES.                                         
REMARK 290   SMTRY1   1  1.000000  0.000000  0.000000        0.00000
REMARK 290   SMTRY2   1  0.000000  1.000000  0.000000        0.00000
REMARK 290   SMTRY3   1  0.000000  0.000000  1.000000        0.00000
REMARK 290   SMTRY1   2 -1.000000  0.000000  0.000000        0.00000
REMARK 290   SMTRY2   2  0.000000 -1.000000  0.000000        0.00000
REMARK 290   SMTRY3   2  0.000000  0.000000  1.000000      108.49650
REMARK 290   SMTRY1   3  0.000000 -1.000000  0.000000        0.00000
REMARK 290   SMTRY2   3  1.000000  0.000000  0.000000        0.00000
REMARK 290   SMTRY3   3  0.000000  0.000000  1.000000      162.74475
REMARK 290   SMTRY1   4  0.000000  1.000000  0.000000        0.00000
REMARK 290   SMTRY2   4 -1.000000  0.000000  0.000000        0.00000
REMARK 290   SMTRY3   4  0.000000  0.000000  1.000000       54.24825
REMARK 290   SMTRY1   5 -1.000000  0.000000  0.000000        0.00000
REMARK 290   SMTRY2   5  0.000000  1.000000  0.000000        0.00000
REMARK 290   SMTRY3   5  0.000000  0.000000 -1.000000        0.00000
REMARK 290   SMTRY1   6  1.000000  0.000000  0.000000        0.00000
REMARK 290   SMTRY2   6  0.000000 -1.000000  0.000000        0.00000
REMARK 290   SMTRY3   6  0.000000  0.000000 -1.000000      108.49650
REMARK 290   SMTRY1   7  0.000000  1.000000  0.000000        0.00000
REMARK 290   SMTRY2   7  1.000000  0.000000  0.000000        0.00000
REMARK 290   SMTRY3   7  0.000000  0.000000 -1.000000       54.24825
REMARK 290   SMTRY1   8  0.000000 -1.000000  0.000000        0.00000
REMARK 290   SMTRY2   8 -1.000000  0.000000  0.000000        0.00000
REMARK 290   SMTRY3   8  0.000000  0.000000 -1.000000      162.74475
REMARK 290                                                            
REMARK 290 REMARK: NULL                                               
CRYST1   42.574   42.574  216.993  90.00  90.00  90.00 P 43 2 2                 


$$$$
Zx0788c_ligand
  PyMOL3.0          3D                             0

 15 16  0  0  0  0  0  0  0  0999 V2000
   -4.6090   -1.3970  -28.3860 C   0  0  0  0  0  0  0  0  0  0  0  0
   -7.2680    1.7600  -28.5650 N   0  0  0  0  0  0  0  0  0  0  0  0
   -7.1850   -1.3910  -28.0800 O   0  0  0  0  0  0  0  0  0  0  0  0
   -6.1790   -0.8600  -28.9520 S   0  0  0  0  0  0  0  0  0  0  0  0
   -6.2100    0.9090  -28.7730 C   0  0  0  0  0  0  0  0  0  0  0  0
   -5.0810    1.5800  -28.8820 N   0  0  0  0  0  0  0  0  0  0  0  0
   -6.2800   -1.1410  -30.3550 O   0  0  0  0  0  0  0  0  0  0  0  0
   -9.1410    2.6720  -32.6150 S   0  0  0  0  0  0  0  0  0  0  0  0
   -6.7550    3.0350  -28.5590 C   0  0  0  0  0  0  0  0  0  0  0  0
  -10.2460    2.7220  -30.3110 N   0  0  0  0  0  0  0  0  0  0  0  0
   -5.4240    2.9040  -28.7500 C   0  0  0  0  0  0  0  0  0  0  0  0
   -8.6510    1.4190  -28.8790 C   0  0  0  0  0  0  0  0  0  0  0  0
   -9.0730    1.9930  -30.1960 C   0  0  0  0  0  0  0  0  0  0  0  0
  -10.3850    3.1300  -31.5370 C   0  0  0  0  0  0  0  0  0  0  0  0
   -8.3620    1.8680  -31.3390 C   0  0  0  0  0  0  0  0  0  0  0  0
  2  9  4  0  0  0  0
  2 12  1  0  0  0  0
  3  4  2  0  0  0  0
  1  4  1  0  0  0  0
  4  5  1  0  0  0  0
  4  7  2  0  0  0  0
  2  5  4  0  0  0  0
  5  6  4  0  0  0  0
  8 15  4  0  0  0  0
  9 11  4  0  0  0  0
 10 14  4  0  0  0  0
  6 11  4  0  0  0  0
 12 13  1  0  0  0  0
 10 13  4  0  0  0  0
 13 15  4  0  0  0  0
  8 14  4  0  0  0  0
M  END
>  <pdb_header>
COMPND    XX01ZVNS2B-x0788_B_303_XX01ZVNS2B-x0788+B+303+1


$$$$
Zx0800a
  PyMOL3.0          3D                             0

 11 12  0  0  0  0  0  0  0  0999 V2000
   -3.5020    4.6720  -16.8750 N   0  0  0  0  0  0  0  0  0  0  0  0
   -4.1300    4.9470  -18.0150 C   0  0  0  0  0  0  0  0  0  0  0  0
   -3.5490    5.0090  -19.1170 O   0  0  0  0  0  0  0  0  0  0  0  0
   -5.5950    5.2140  -17.9130 C   0  0  0  0  0  0  0  0  0  0  0  0
   -7.5690    4.9730  -17.0190 N   0  0  0  0  0  0  0  0  0  0  0  0
   -6.2780    5.2700  -16.7350 C   0  0  0  0  0  0  0  0  0  0  0  0
   -6.4720    4.8740  -18.9400 N   0  0  0  0  0  0  0  0  0  0  0  0
   -7.6470    4.7360  -18.3450 C   0  0  0  0  0  0  0  0  0  0  0  0
   -8.9210    4.3680  -18.9620 C   0  0  0  0  0  0  0  0  0  0  0  0
   -9.9530    3.6170  -18.1700 C   0  0  0  0  0  0  0  0  0  0  0  0
  -10.1890    5.0340  -18.5090 C   0  0  0  0  0  0  0  0  0  0  0  0
  1  2  1  0  0  0  0
  2  4  1  0  0  0  0
  2  3  2  0  0  0  0
  4  6  1  0  0  0  0
  4  7  1  0  0  0  0
  5  6  1  0  0  0  0
  7  8  1  0  0  0  0
  5  8  1  0  0  0  0
  8  9  1  0  0  0  0
  9 10  1  0  0  0  0
  9 11  1  0  0  0  0
 10 11  1  0  0  0  0
M  END
>  <pdb_header>
HEADER    ----                                    18-MAY-23                     
TITLE     ---                                                                   
EXPDTA    X-RAY DIFFRACTION                                                     
REMARK --------------------- added by autoBUSTER ---------------------------------START
REMARK run at   = Fri Sep 29 18:24:31 BST 2023
REMARK     in   = /dls/labxchem/data/lb32627/lb32627-65/processing/analysis/model_building/XX01ZVNS2B-x0800
REMARK     user = kyf22269
REMARK     cmd  = \
REMARK            /dls_sw/apps/GPhL/BUSTER/20230726/autoBUSTER/bin/linux64/refine \
REMARK            -p \
REMARK            /dls/labxchem/data/lb32627/lb32627-65/processing/analysis/model_building/XX01ZVNS2B-x0800/cootOut/Refi
REMARK            -m \
REMARK            /dls/labxchem/data/lb32627/lb32627-65/processing/analysis/model_building/XX01ZVNS2B-x0800/XX01ZVNS2B-x
REMARK            -l \
REMARK            /dls/labxchem/data/lb32627/lb32627-65/processing/analysis/model_building/XX01ZVNS2B-x0800/Z1397964787.
REMARK            -autoncs -M TLSbasic -d Refine_6
REMARK Files used:
REMARK   PDB              = Refine_6/pdbchk.pdb
REMARK   MTZ              = /dls/labxchem/data/lb32627/lb32627-65/processing/analysis/model_building/XX01ZVNS2B-x0800/XX
REMARK output written to subdirectory = Refine_6
REMARK best refinement for F,SIGF with R/Rfree 0.2374/0.2809
REMARK header records are copied from input PDB file (apart from REMARK 3!)
REMARK --------------------- added by autoBUSTER -----------------------------------END
REMARK --------------------- added by autoBUSTER -------------------------------
REMARK run at   = Thu Jun 15 20:38:59 BST 2023                                  
REMARK     in   = /dls/labxchem/data/lb32627/lb32627-65/processing/analysis/mode
REMARK     user = xau79897                                                      
REMARK     cmd  = \                                                             
REMARK            /dls_sw/apps/GPhL/BUSTER/20230614/autoBUSTER/bin/linux64/refin
REMARK            -p \                                                          
REMARK            /dls/labxchem/data/lb32627/lb32627-65/processing/analysis/mode
REMARK            -m \                                                          
REMARK            /dls/labxchem/data/lb32627/lb32627-65/processing/analysis/mode
REMARK            -l \                                                          
REMARK            /dls/labxchem/data/lb32627/lb32627-65/processing/analysis/mode
REMARK            -autoncs -M TLSbasic StopOnGellySanityCheckError=no -d \      
REMARK            Refine_5                                                      
REMARK Files used:                                                              
REMARK   PDB              = Refine_5/pdbchk.pdb                                 
REMARK   MTZ              = /dls/labxchem/data/lb32627/lb32627-65/processing/ana
REMARK output written to subdirectory = Refine_5                                
REMARK best refinement for F,SIGF with R/Rfree 0.2369/0.2812                    
REMARK header records are copied from input PDB file (apart from REMARK 3!)     
REMARK --------------------- added by autoBUSTER -------------------------------
REMARK --------------------- added by autoBUSTER -------------------------------
REMARK run at   = Tue May 30 14:13:59 BST 2023                                  
REMARK     in   = /dls/labxchem/data/lb32627/lb32627-65/processing/analysis/mode
REMARK     user = xau79897                                                      
REMARK     cmd  = \                                                             
REMARK            /dls_sw/apps/GPhL/BUSTER/20230217/autoBUSTER/bin/linux64/refin
REMARK            -p \                                                          
REMARK            /dls/labxchem/data/lb32627/lb32627-65/processing/analysis/mode
REMARK            -m \                                                          
REMARK            /dls/labxchem/data/lb32627/lb32627-65/processing/analysis/mode
REMARK            -l \                                                          
REMARK            /dls/labxchem/data/lb32627/lb32627-65/processing/analysis/mode
REMARK            -autoncs -M TLSbasic -WAT -B user -Gelly gelly.dat \          
REMARK            StopOnGellySanityCheckError=no -d Refine_4                    
REMARK Files used:                                                              
REMARK   PDB              = Refine_4/pdbchk.pdb                                 
REMARK   MTZ              = /dls/labxchem/data/lb32627/lb32627-65/processing/ana
REMARK   Gelly commands       = /dls/labxchem/data/lb32627/lb32627-65/processing
REMARK output written to subdirectory = Refine_4                                
REMARK best refinement for F,SIGF with R/Rfree 0.2400/0.2952                    
REMARK header records are copied from input PDB file (apart from REMARK 3!)     
REMARK --------------------- added by autoBUSTER -------------------------------
REMARK --------------------- added by autoBUSTER -------------------------------
REMARK run at   = Tue May 23 17:14:42 BST 2023                                  
REMARK     in   = /dls/labxchem/data/lb32627/lb32627-65/processing/analysis/mode
REMARK     user = xau79897                                                      
REMARK     cmd  = \                                                             
REMARK            /dls_sw/apps/GPhL/BUSTER/20230217/autoBUSTER/bin/linux64/refin
REMARK            -p \                                                          
REMARK            /dls/labxchem/data/lb32627/lb32627-65/processing/analysis/mode
REMARK            -m \                                                          
REMARK            /dls/labxchem/data/lb32627/lb32627-65/processing/analysis/mode
REMARK            -l \                                                          
REMARK            /dls/labxchem/data/lb32627/lb32627-65/processing/analysis/mode
REMARK            -autoncs -M TLSbasic -d Refine_3                              
REMARK Files used:                                                              
REMARK   PDB              = Refine_3/pdbchk.pdb                                 
REMARK   MTZ              = /dls/labxchem/data/lb32627/lb32627-65/processing/ana
REMARK output written to subdirectory = Refine_3                                
REMARK best refinement for F,SIGF with R/Rfree 0.2482/0.2905                    
REMARK header records are copied from input PDB file (apart from REMARK 3!)     
REMARK --------------------- added by autoBUSTER -------------------------------
REMARK   2                                                            
REMARK   2 RESOLUTION.    1.57 ANGSTROMS.
REMARK   3
REMARK   3 REFINEMENT.
REMARK   3   PROGRAM     : BUSTER 2.10.4 (26-JUL-2023)
REMARK   3   AUTHORS     : BRICOGNE,BLANC,BRANDL,FLENSBURG,KELLER,
REMARK   3               : PACIOREK,ROVERSI,SHARFF,SMART,VONRHEIN,WOMACK;
REMARK   3               : MATTHEWS,TEN EYCK,TRONRUD
REMARK   3
REMARK   3  DATA USED IN REFINEMENT.
REMARK   3   RESOLUTION RANGE HIGH (ANGSTROMS) : 1.566
REMARK   3   RESOLUTION RANGE LOW  (ANGSTROMS) : 23.19
REMARK   3   DATA CUTOFF            (SIGMA(F)) : 0.000
REMARK   3   COMPLETENESS FOR RANGE        (%) : 77.0
REMARK   3   NUMBER OF REFLECTIONS             : 22807
REMARK   3
REMARK   3  FIT TO DATA USED IN REFINEMENT.
REMARK   3   CROSS-VALIDATION METHOD          : THROUGHOUT
REMARK   3   FREE R VALUE TEST SET SELECTION  : RANDOM
REMARK   3   R VALUE     (WORKING + TEST SET) : 0.2395
REMARK   3   R VALUE            (WORKING SET) : 0.2374
REMARK   3   FREE R VALUE                     : 0.2809
REMARK   3   FREE R VALUE TEST SET SIZE   (%) : 5.090
REMARK   3   FREE R VALUE TEST SET COUNT      : 1162
REMARK   3   ESTIMATED ERROR OF FREE R VALUE  : NULL
REMARK   3
REMARK   3  FIT IN THE HIGHEST RESOLUTION BIN.
REMARK   3   TOTAL NUMBER OF BINS USED           : 51
REMARK   3   BIN RESOLUTION RANGE HIGH       (A) : 1.57
REMARK   3   BIN RESOLUTION RANGE LOW        (A) : 1.70
REMARK   3   BIN COMPLETENESS (WORKING+TEST) (%) : 6.98
REMARK   3   REFLECTIONS IN BIN   (WORKING+TEST) : 457
REMARK   3   BIN R VALUE          (WORKING+TEST) : 0.5923
REMARK   3   REFLECTIONS IN BIN    (WORKING SET) : 430
REMARK   3   BIN R VALUE           (WORKING SET) : 0.5884
REMARK   3   BIN FREE R VALUE                    : 0.6539
REMARK   3   BIN FREE R VALUE TEST SET SIZE  (%) : 5.91
REMARK   3   BIN FREE R VALUE TEST SET COUNT     : 27
REMARK   3   ESTIMATED ERROR OF BIN FREE R VALUE : NULL
REMARK   3
REMARK   3  NUMBER OF NON-HYDROGEN ATOMS USED IN REFINEMENT.
REMARK   3   PROTEIN ATOMS            : 1476
REMARK   3   NUCLEIC ACID ATOMS       : 0
REMARK   3   HETEROGEN ATOMS          : 19
REMARK   3   SOLVENT ATOMS            : 129
REMARK   3
REMARK   3  B VALUES.
REMARK   3   FROM WILSON PLOT           (A**2) : 30.76
REMARK   3   MEAN B VALUE      (OVERALL, A**2) : 48.22
REMARK   3   OVERALL ANISOTROPIC B VALUE.
REMARK   3    B11 (A**2) : -6.28600
REMARK   3    B22 (A**2) : -6.28600
REMARK   3    B33 (A**2) : 12.57190
REMARK   3    B12 (A**2) : 0.00000
REMARK   3    B13 (A**2) : 0.00000
REMARK   3    B23 (A**2) : 0.00000
REMARK   3
REMARK   3  ESTIMATED COORDINATE ERROR.
REMARK   3   ESD FROM LUZZATI PLOT                    (A) : 0.37
REMARK   3   DPI (BLOW EQ-10) BASED ON R VALUE        (A) : 0.140
REMARK   3   DPI (BLOW EQ-9) BASED ON FREE R VALUE    (A) : 0.135
REMARK   3   DPI (CRUICKSHANK) BASED ON R VALUE       (A) : 0.130
REMARK   3   DPI (CRUICKSHANK) BASED ON FREE R VALUE  (A) : 0.129
REMARK   3
REMARK   3   REFERENCES: BLOW, D. (2002) ACTA CRYST D58, 792-797
REMARK   3               CRUICKSHANK, D.W.J. (1999) ACTA CRYST D55, 583-601
REMARK   3
REMARK   3  CORRELATION COEFFICIENTS.
REMARK   3   CORRELATION COEFFICIENT FO-FC      : 0.939
REMARK   3   CORRELATION COEFFICIENT FO-FC FREE : 0.920
REMARK   3
REMARK   3  X-RAY WEIGHT : 7.47
REMARK   3
REMARK   3  GEOMETRY FUNCTION.                                                  
REMARK   3   RESTRAINT LIBRARIES.                                               
REMARK   3    NUMBER OF LIBRARIES USED :   9                                    
REMARK   3    LIBRARY  1 : protgeo_eh99.dat (V1.6.4.20) 20220523  STANDARD      
REMARK   3                 AMINO ACID DICTIONARY. BONDS AND ANGLES FROM         
REMARK   3                 ENGH AND HUBER EH99. OTHER VALUES BASED ON           
REMARK   3                 PREVIOUS TNT OR TAKEN FROM CCP4. INCLUDES            
REMARK   3                 HYDROGEN ATOMS.                                      
REMARK   3    LIBRARY  2 : exoticaa.dat (V1.3.4.16) 20220523  COLLECTION        
REMARK   3                 OF NON-STANDARD AMINO ACIDS, MAINLY EH91             
REMARK   3                 WITHOUT IDEAL DISTANCE INFO                          
REMARK   3    LIBRARY  3 : nuclgeo.dat (V1.13.4.9) 20221011                     
REMARK   3    LIBRARY  4 : bcorrel.dat (V1.15.10.2) 20190616                    
REMARK   3    LIBRARY  5 : contact.dat (V1.15.12.10) 20191121                   
REMARK   3    LIBRARY  6 : idealdist_contact.dat (V1.3.4.14) 20230724           
REMARK   3                 IDEAL-DISTANCE CONTACT TERM DATA AS USED IN          
REMARK   3                 PROLSQ. VALUES USED HERE ARE BASEd ON DATA           
REMARK   3                 HARVESTING OF PDB AS OF 20190109                     
REMARK   3    LIBRARY  7 : restraints for LIG (unknown) from cif                
REMARK   3                 dictionary Z1397964787.cif; generated by GRADE       
REMARK   3                 1.2.21 (Feb 03 2022) from SMILES                     
REMARK   3                 NC(=O)c1c[nH]c(n1)C2CC2 using MOGUL                  
REMARK   3                 1.8.5(274361), CSD as541be, with quantum             
REMARK   3                 mechanics RM1                                        
REMARK   3    LIBRARY  8 : restraints for DMS (DIMETHYL SULFOXIDE) from         
REMARK   3                 cif dictionary DMS.cif; generated by grade2          
REMARK   3                 version 1.1.0a7 from                                 
REMARK   3                 PDB_chemical_components_definition_file              
REMARK   3                 ftp://ftp.ebi.ac.uk/pub/databases/msd/pdbechem_v     
REMARK   3                 2/D/DMS/DMS.cif using RDKit 2021.03.4                
REMARK   3                 ((DatabaseID PDB-DMS))                               
REMARK   3    LIBRARY  9 : assume.dat (V1.9.4.3) 20221011                       
REMARK   3                                                                      
REMARK   3   NUMBER OF GEOMETRIC FUNCTION TERMS DEFINED : 15                    
REMARK   3   TERM                          COUNT    WEIGHT   FUNCTION.          
REMARK   3    BOND LENGTHS              :   1573 ;   2.00 ;  HARMONIC           
REMARK   3    BOND ANGLES               :   2139 ;   2.00 ;  HARMONIC           
REMARK   3    TORSION ANGLES            :    528 ;   2.00 ;  SINUSOIDAL         
REMARK   3    TRIGONAL CARBON PLANES    :   NULL ;   NULL ;  NULL               
REMARK   3    GENERAL PLANES            :    273 ;   5.00 ;  HARMONIC           
REMARK   3    ISOTROPIC THERMAL FACTORS :   1573 ;  10.00 ;  HARMONIC           
REMARK   3    BAD NON-BONDED CONTACTS   :   NULL ;   NULL ;  NULL               
REMARK   3    IMPROPER TORSIONS         :   NULL ;   NULL ;  NULL               
REMARK   3    PSEUDOROTATION ANGLES     :   NULL ;   NULL ;  NULL               
REMARK   3    CHIRAL IMPROPER TORSION   :    192 ;   5.00 ;  SEMIHARMONIC       
REMARK   3    SUM OF OCCUPANCIES        :   NULL ;   NULL ;  NULL               
REMARK   3    UTILITY DISTANCES         :   NULL ;   NULL ;  NULL               
REMARK   3    UTILITY ANGLES            :   NULL ;   NULL ;  NULL               
REMARK   3    UTILITY TORSION           :   NULL ;   NULL ;  NULL               
REMARK   3    IDEAL-DIST CONTACT TERM   :   1283 ;   4.00 ;  SEMIHARMONIC       
REMARK   3                                                                      
REMARK   3   RMS DEVIATIONS FROM IDEAL VALUES.                                  
REMARK   3   BOND LENGTHS                       (A) : 0.010                     
REMARK   3   BOND ANGLES                  (DEGREES) : 1.02                      
REMARK   3   PEPTIDE OMEGA TORSION ANGLES (DEGREES) : 3.67                      
REMARK   3   OTHER TORSION ANGLES         (DEGREES) : 16.17                     
REMARK   3                                                                      
REMARK   3   SIMILARITY.                                                        
REMARK   3    NCS.                                                              
REMARK   3     NCS METHOD: NONE                                                 
REMARK   3    TARGET RESTRAINTS.                                                
REMARK   3     TARGET REPRESENTATION : NONE                                     
REMARK   3     TARGET STRUCTURE : NULL                                          
REMARK   3                                                                      
REMARK   3  TLS DETAILS.                                                        
REMARK   3   NUMBER OF TLS GROUPS  :            2                               
REMARK   3                                                                      
REMARK   3   TLS GROUP :            1                                           
REMARK   3    SET : { A|* }                                                     
REMARK   3    ORIGIN FOR THE GROUP (A):  -13.7775   -1.2180  -19.3318           
REMARK   3    T TENSOR                                                          
REMARK   3     T11:   -0.0225 T22:   -0.0288                                    
REMARK   3     T33:   -0.1831 T12:    0.1242                                    
REMARK   3     T13:    0.1072 T23:    0.0804                                    
REMARK   3    L TENSOR                                                          
REMARK   3     L11:    3.2049 L22:    3.7641                                    
REMARK   3     L33:    3.4653 L12:   -2.0204                                    
REMARK   3     L13:    0.6894 L23:    0.7079                                    
REMARK   3    S TENSOR                                                          
REMARK   3     S11:    0.3987 S12:    0.3985 S13:    0.2333                     
REMARK   3     S21:   -0.4934 S22:   -0.3343 S23:   -0.2741                     
REMARK   3     S31:   -0.1362 S32:    0.5507 S33:   -0.0644                     
REMARK   3                                                                      
REMARK   3   TLS GROUP :            2                                           
REMARK   3    SET : { B|* }                                                     
REMARK   3    ORIGIN FOR THE GROUP (A):  -18.7197    1.4508  -15.4147           
REMARK   3    T TENSOR                                                          
REMARK   3     T11:    0.0568 T22:   -0.0064                                    
REMARK   3     T33:   -0.0223 T12:    0.1084                                    
REMARK   3     T13:    0.0263 T23:    0.0215                                    
REMARK   3    L TENSOR                                                          
REMARK   3     L11:    1.2225 L22:    0.9974                                    
REMARK   3     L33:    2.2689 L12:   -1.1366                                    
REMARK   3     L13:    0.9248 L23:   -0.1421                                    
REMARK   3    S TENSOR                                                          
REMARK   3     S11:    0.2113 S12:    0.1597 S13:    0.1074                     
REMARK   3     S21:   -0.1234 S22:   -0.2553 S23:    0.0656                     
REMARK   3     S31:    0.0202 S32:    0.2242 S33:    0.0440                     
REMARK   3                                                                      
REMARK   3  REFINEMENT NOTES.                                                   
REMARK   3   NUMBER OF REFINEMENT NOTES :   1                                   
REMARK   3   NOTE   1 : IDEAL-DIST CONTACT TERM CONTACT SETUP. ALL ATOMS        
REMARK   3               HAVE CCP4 ATOM TYPE FROM LIBRARY                       
REMARK   3
REMARK   3  OTHER REFINEMENT REMARKS: NULL
REMARK   3
REMARK 290                                                            
REMARK 290 CRYSTALLOGRAPHIC SYMMETRY                                  
REMARK 290 SYMMETRY OPERATORS FOR SPACE GROUP: P 43 2 2               
REMARK 290                                                            
REMARK 290      SYMOP   SYMMETRY                                      
REMARK 290     NNNMMM   OPERATOR                                      
REMARK 290       1555   X,Y,Z                                         
REMARK 290       2555   -X,-Y,1/2+Z                                   
REMARK 290       3555   -Y,X,3/4+Z                                    
REMARK 290       4555   Y,-X,1/4+Z                                    
REMARK 290       5555   -X,Y,-Z                                       
REMARK 290       6555   X,-Y,1/2-Z                                    
REMARK 290       7555   Y,X,1/4-Z                                     
REMARK 290       8555   -Y,-X,3/4-Z                                   
REMARK 290                                                            
REMARK 290     WHERE NNN -> OPERATOR NUMBER                           
REMARK 290           MMM -> TRANSLATION VECTOR                        
REMARK 290                                                            
REMARK 290 CRYSTALLOGRAPHIC SYMMETRY TRANSFORMATIONS                  
REMARK 290 THE FOLLOWING TRANSFORMATIONS OPERATE ON THE ATOM/HETATM   
REMARK 290 RECORDS IN THIS ENTRY TO PRODUCE CRYSTALLOGRAPHICALLY      
REMARK 290 RELATED MOLECULES.                                         
REMARK 290   SMTRY1   1  1.000000  0.000000  0.000000        0.00000
REMARK 290   SMTRY2   1  0.000000  1.000000  0.000000        0.00000
REMARK 290   SMTRY3   1  0.000000  0.000000  1.000000        0.00000
REMARK 290   SMTRY1   2 -1.000000  0.000000  0.000000        0.00000
REMARK 290   SMTRY2   2  0.000000 -1.000000  0.000000        0.00000
REMARK 290   SMTRY3   2  0.000000  0.000000  1.000000      108.43900
REMARK 290   SMTRY1   3  0.000000 -1.000000  0.000000        0.00000
REMARK 290   SMTRY2   3  1.000000  0.000000  0.000000        0.00000
REMARK 290   SMTRY3   3  0.000000  0.000000  1.000000      162.65850
REMARK 290   SMTRY1   4  0.000000  1.000000  0.000000        0.00000
REMARK 290   SMTRY2   4 -1.000000  0.000000  0.000000        0.00000
REMARK 290   SMTRY3   4  0.000000  0.000000  1.000000       54.21950
REMARK 290   SMTRY1   5 -1.000000  0.000000  0.000000        0.00000
REMARK 290   SMTRY2   5  0.000000  1.000000  0.000000        0.00000
REMARK 290   SMTRY3   5  0.000000  0.000000 -1.000000        0.00000
REMARK 290   SMTRY1   6  1.000000  0.000000  0.000000        0.00000
REMARK 290   SMTRY2   6  0.000000 -1.000000  0.000000        0.00000
REMARK 290   SMTRY3   6  0.000000  0.000000 -1.000000      108.43900
REMARK 290   SMTRY1   7  0.000000  1.000000  0.000000        0.00000
REMARK 290   SMTRY2   7  1.000000  0.000000  0.000000        0.00000
REMARK 290   SMTRY3   7  0.000000  0.000000 -1.000000       54.21950
REMARK 290   SMTRY1   8  0.000000 -1.000000  0.000000        0.00000
REMARK 290   SMTRY2   8 -1.000000  0.000000  0.000000        0.00000
REMARK 290   SMTRY3   8  0.000000  0.000000 -1.000000      162.65850
REMARK 290                                                            
REMARK 290 REMARK: NULL                                               
CRYST1   42.741   42.741  216.878  90.00  90.00  90.00 P 43 2 2                 


$$$$
Zx0800a_ligand
  PyMOL3.0          3D                             0

 11 12  0  0  0  0  0  0  0  0999 V2000
   -4.1300    4.9470  -18.0150 C   0  0  0  0  0  0  0  0  0  0  0  0
   -3.5020    4.6720  -16.8750 N   0  0  0  0  0  0  0  0  0  0  0  0
   -3.5490    5.0090  -19.1170 O   0  0  0  0  0  0  0  0  0  0  0  0
   -5.5950    5.2140  -17.9130 C   0  0  0  0  0  0  0  0  0  0  0  0
   -6.4720    4.8740  -18.9400 N   0  0  0  0  0  0  0  0  0  0  0  0
   -7.6470    4.7360  -18.3450 C   0  0  0  0  0  0  0  0  0  0  0  0
   -7.5690    4.9730  -17.0190 N   0  0  0  0  0  0  0  0  0  0  0  0
   -6.2780    5.2700  -16.7350 C   0  0  0  0  0  0  0  0  0  0  0  0
   -8.9210    4.3680  -18.9620 C   0  0  0  0  0  0  0  0  0  0  0  0
  -10.1890    5.0340  -18.5090 C   0  0  0  0  0  0  0  0  0  0  0  0
   -9.9530    3.6170  -18.1700 C   0  0  0  0  0  0  0  0  0  0  0  0
  1  2  1  0  0  0  0
  1  4  1  0  0  0  0
  1  3  2  0  0  0  0
  4  5  1  0  0  0  0
  4  8  1  0  0  0  0
  5  6  1  0  0  0  0
  6  7  1  0  0  0  0
  6  9  1  0  0  0  0
  7  8  1  0  0  0  0
  9 10  1  0  0  0  0
  9 11  1  0  0  0  0
 10 11  1  0  0  0  0
M  END
>  <pdb_header>
COMPND    XX01ZVNS2B-x0800_B_301_XX01ZVNS2B-x1291+B+301+1


$$$$
Zx0806a
  PyMOL3.0          3D                             0

 28 30  0  0  0  0  0  0  0  0999 V2000
   -4.3050    6.4380  -23.3720 N   0  0  0  0  0  0  0  0  0  0  0  0
   -2.9050    8.3200  -24.0490 C   0  0  0  0  0  0  0  0  0  0  0  0
   -4.3020    7.8850  -23.6200 C   0  0  0  0  0  0  0  0  0  0  0  0
   -6.8680    8.5680  -26.1100 N   0  0  0  0  0  0  0  0  0  0  0  0
   -5.2430    8.1150  -24.7680 C   0  0  0  0  0  0  0  0  0  0  0  0
   -6.0050    7.7700  -26.7780 N   0  0  0  0  0  0  0  0  0  0  0  0
   -6.4050    8.8250  -24.8670 C   0  0  0  0  0  0  0  0  0  0  0  0
   -5.0240    7.4860  -25.9540 N   0  0  0  0  0  0  0  0  0  0  0  0
   -8.1530    8.8360  -26.6650 C   0  0  0  0  0  0  0  0  0  0  0  0
   -8.8620    7.8120  -27.2760 C   0  0  0  0  0  0  0  0  0  0  0  0
  -10.1650    8.0340  -27.6850 C   0  0  0  0  0  0  0  0  0  0  0  0
  -10.7530    9.2650  -27.4920 C   0  0  0  0  0  0  0  0  0  0  0  0
  -10.0310   10.2930  -26.9250 C   0  0  0  0  0  0  0  0  0  0  0  0
   -8.7270   10.0900  -26.5130 C   0  0  0  0  0  0  0  0  0  0  0  0
  -17.0660  -12.5380  -12.4770 N   0  0  0  0  0  0  0  0  0  0  0  0
  -15.5070  -13.5290  -10.8700 C   0  0  0  0  0  0  0  0  0  0  0  0
  -16.4660  -12.3780  -11.1500 C   0  0  0  0  0  0  0  0  0  0  0  0
  -14.6520   -9.2910  -10.5510 N   0  0  0  0  0  0  0  0  0  0  0  0
  -15.7580  -11.0530  -11.1180 C   0  0  0  0  0  0  0  0  0  0  0  0
  -15.2940   -9.0050  -11.7090 N   0  0  0  0  0  0  0  0  0  0  0  0
  -14.9150  -10.5600  -10.1660 C   0  0  0  0  0  0  0  0  0  0  0  0
  -15.9570  -10.0810  -12.0580 N   0  0  0  0  0  0  0  0  0  0  0  0
  -13.8220   -8.3120   -9.9330 C   0  0  0  0  0  0  0  0  0  0  0  0
  -13.8480   -8.1550   -8.5530 C   0  0  0  0  0  0  0  0  0  0  0  0
  -12.9980   -7.2450   -7.9540 C   0  0  0  0  0  0  0  0  0  0  0  0
  -12.1200   -6.5090   -8.7170 C   0  0  0  0  0  0  0  0  0  0  0  0
  -12.0940   -6.6740  -10.0900 C   0  0  0  0  0  0  0  0  0  0  0  0
  -12.9550   -7.5600  -10.7060 C   0  0  0  0  0  0  0  0  0  0  0  0
  1  3  1  0  0  0  0
  2  3  1  0  0  0  0
  3  5  1  0  0  0  0
  4  7  4  0  0  0  0
  4  9  1  0  0  0  0
  5  7  4  0  0  0  0
  5  8  4  0  0  0  0
  4  6  4  0  0  0  0
  6  8  4  0  0  0  0
  9 10  4  0  0  0  0
  9 14  4  0  0  0  0
 10 11  4  0  0  0  0
 11 12  4  0  0  0  0
 12 13  4  0  0  0  0
 13 14  4  0  0  0  0
 15 17  1  0  0  0  0
 16 17  1  0  0  0  0
 17 19  1  0  0  0  0
 18 21  4  0  0  0  0
 18 23  1  0  0  0  0
 19 21  4  0  0  0  0
 19 22  4  0  0  0  0
 18 20  4  0  0  0  0
 20 22  4  0  0  0  0
 23 24  4  0  0  0  0
 23 28  4  0  0  0  0
 24 25  4  0  0  0  0
 25 26  4  0  0  0  0
 26 27  4  0  0  0  0
 27 28  4  0  0  0  0
M  END
>  <pdb_header>
HEADER    ----                                    30-JUN-23                     
TITLE     ---                                                                   
EXPDTA    X-RAY DIFFRACTION                                                     
REMARK --------------------- added by autoBUSTER ---------------------------------START
REMARK run at   = Thu Aug 10 19:35:17 BST 2023
REMARK     in   = /dls/labxchem/data/lb32627/lb32627-65/processing/analysis/model_building/XX01ZVNS2B-x0806
REMARK     user = xau79897
REMARK     cmd  = \
REMARK            /dls_sw/apps/GPhL/BUSTER/20230614/autoBUSTER/bin/linux64/refine \
REMARK            -p \
REMARK            /dls/labxchem/data/lb32627/lb32627-65/processing/analysis/model_building/XX01ZVNS2B-x0806/cootOut/Refi
REMARK            -m \
REMARK            /dls/labxchem/data/lb32627/lb32627-65/processing/analysis/model_building/XX01ZVNS2B-x0806/XX01ZVNS2B-x
REMARK            -l \
REMARK            /dls/labxchem/data/lb32627/lb32627-65/processing/analysis/model_building/XX01ZVNS2B-x0806/Z1428159350.
REMARK            -autoncs -M TLSbasic -B user -Gelly gelly.dat \
REMARK            StopOnGellySanityCheckError=no -d Refine_11
REMARK Files used:
REMARK   PDB              = Refine_11/pdbchk.pdb
REMARK   MTZ              = /dls/labxchem/data/lb32627/lb32627-65/processing/analysis/model_building/XX01ZVNS2B-x0806/XX
REMARK   Gelly commands       = /dls/labxchem/data/lb32627/lb32627-65/processing/analysis/model_building/XX01ZVNS2B-x080
REMARK output written to subdirectory = Refine_11
REMARK best refinement for F,SIGF with R/Rfree 0.2268/0.2551
REMARK header records are copied from input PDB file (apart from REMARK 3!)
REMARK --------------------- added by autoBUSTER -----------------------------------END
REMARK --------------------- added by autoBUSTER -------------------------------
REMARK run at   = Thu Aug 10 14:03:31 BST 2023                                  
REMARK     in   = /dls/labxchem/data/lb32627/lb32627-65/processing/analysis/mode
REMARK     user = kyf22269                                                      
REMARK     cmd  = \                                                             
REMARK            /dls_sw/apps/GPhL/BUSTER/20230614/autoBUSTER/bin/linux64/refin
REMARK            -p \                                                          
REMARK            /dls/labxchem/data/lb32627/lb32627-65/processing/analysis/mode
REMARK            -m \                                                          
REMARK            /dls/labxchem/data/lb32627/lb32627-65/processing/analysis/mode
REMARK            -l \                                                          
REMARK            /dls/labxchem/data/lb32627/lb32627-65/processing/analysis/mode
REMARK            -autoncs -M TLSbasic -d Refine_10                             
REMARK Files used:                                                              
REMARK   PDB              = Refine_10/pdbchk.pdb                                
REMARK   MTZ              = /dls/labxchem/data/lb32627/lb32627-65/processing/ana
REMARK output written to subdirectory = Refine_10                               
REMARK best refinement for F,SIGF with R/Rfree 0.2274/0.2542                    
REMARK header records are copied from input PDB file (apart from REMARK 3!)     
REMARK --------------------- added by autoBUSTER -------------------------------
REMARK --------------------- added by autoBUSTER -------------------------------
REMARK run at   = Wed Aug  9 14:30:20 BST 2023                                  
REMARK     in   = /dls/labxchem/data/lb32627/lb32627-65/processing/analysis/mode
REMARK     user = kyf22269                                                      
REMARK     cmd  = \                                                             
REMARK            /dls_sw/apps/GPhL/BUSTER/20230614/autoBUSTER/bin/linux64/refin
REMARK            -p \                                                          
REMARK            /dls/labxchem/data/lb32627/lb32627-65/processing/analysis/mode
REMARK            -m \                                                          
REMARK            /dls/labxchem/data/lb32627/lb32627-65/processing/analysis/mode
REMARK            -l \                                                          
REMARK            /dls/labxchem/data/lb32627/lb32627-65/processing/analysis/mode
REMARK            -autoncs -M TLSbasic -d Refine_9                              
REMARK Files used:                                                              
REMARK   PDB              = Refine_9/pdbchk.pdb                                 
REMARK   MTZ              = /dls/labxchem/data/lb32627/lb32627-65/processing/ana
REMARK output written to subdirectory = Refine_9                                
REMARK best refinement for F,SIGF with R/Rfree 0.2274/0.2539                    
REMARK header records are copied from input PDB file (apart from REMARK 3!)     
REMARK --------------------- added by autoBUSTER -------------------------------
REMARK --------------------- added by autoBUSTER -------------------------------
REMARK run at   = Wed Aug  9 11:36:56 BST 2023                                  
REMARK     in   = /dls/labxchem/data/lb32627/lb32627-65/processing/analysis/mode
REMARK     user = kyf22269                                                      
REMARK     cmd  = \                                                             
REMARK            /dls_sw/apps/GPhL/BUSTER/20230614/autoBUSTER/bin/linux64/refin
REMARK            -p \                                                          
REMARK            /dls/labxchem/data/lb32627/lb32627-65/processing/analysis/mode
REMARK            -m \                                                          
REMARK            /dls/labxchem/data/lb32627/lb32627-65/processing/analysis/mode
REMARK            -l \                                                          
REMARK            /dls/labxchem/data/lb32627/lb32627-65/processing/analysis/mode
REMARK            -autoncs -M TLSbasic -d Refine_8                              
REMARK Files used:                                                              
REMARK   PDB              = Refine_8/pdbchk.pdb                                 
REMARK   MTZ              = /dls/labxchem/data/lb32627/lb32627-65/processing/ana
REMARK output written to subdirectory = Refine_8                                
REMARK best refinement for F,SIGF with R/Rfree 0.2274/0.2535                    
REMARK header records are copied from input PDB file (apart from REMARK 3!)     
REMARK --------------------- added by autoBUSTER -------------------------------
REMARK --------------------- added by autoBUSTER -------------------------------
REMARK run at   = Tue Aug  1 17:50:15 BST 2023                                  
REMARK     in   = /dls/labxchem/data/lb32627/lb32627-65/processing/analysis/mode
REMARK     user = kyf22269                                                      
REMARK     cmd  = \                                                             
REMARK            /dls_sw/apps/GPhL/BUSTER/20230614/autoBUSTER/bin/linux64/refin
REMARK            -p \                                                          
REMARK            /dls/labxchem/data/lb32627/lb32627-65/processing/analysis/mode
REMARK            -m \                                                          
REMARK            /dls/labxchem/data/lb32627/lb32627-65/processing/analysis/mode
REMARK            -l \                                                          
REMARK            /dls/labxchem/data/lb32627/lb32627-65/processing/analysis/mode
REMARK            -autoncs -M TLSbasic -d Refine_7                              
REMARK Files used:                                                              
REMARK   PDB              = Refine_7/pdbchk.pdb                                 
REMARK   MTZ              = /dls/labxchem/data/lb32627/lb32627-65/processing/ana
REMARK output written to subdirectory = Refine_7                                
REMARK best refinement for F,SIGF with R/Rfree 0.2277/0.2516                    
REMARK header records are copied from input PDB file (apart from REMARK 3!)     
REMARK --------------------- added by autoBUSTER -------------------------------
REMARK --------------------- added by autoBUSTER -------------------------------
REMARK run at   = Thu Jul  6 16:11:26 BST 2023                                  
REMARK     in   = /dls/labxchem/data/lb32627/lb32627-65/processing/analysis/mode
REMARK     user = kyf22269                                                      
REMARK     cmd  = \                                                             
REMARK            /dls_sw/apps/GPhL/BUSTER/20230614/autoBUSTER/bin/linux64/refin
REMARK            -p \                                                          
REMARK            /dls/labxchem/data/lb32627/lb32627-65/processing/analysis/mode
REMARK            -m \                                                          
REMARK            /dls/labxchem/data/lb32627/lb32627-65/processing/analysis/mode
REMARK            -l \                                                          
REMARK            /dls/labxchem/data/lb32627/lb32627-65/processing/analysis/mode
REMARK            -autoncs -M TLSbasic -d Refine_6                              
REMARK Files used:                                                              
REMARK   PDB              = Refine_6/pdbchk.pdb                                 
REMARK   MTZ              = /dls/labxchem/data/lb32627/lb32627-65/processing/ana
REMARK output written to subdirectory = Refine_6                                
REMARK best refinement for F,SIGF with R/Rfree 0.2322/0.2544                    
REMARK header records are copied from input PDB file (apart from REMARK 3!)     
REMARK --------------------- added by autoBUSTER -------------------------------
REMARK --------------------- added by autoBUSTER -------------------------------
REMARK run at   = Thu Jul  6 15:05:25 BST 2023                                  
REMARK     in   = /dls/labxchem/data/lb32627/lb32627-65/processing/analysis/mode
REMARK     user = kyf22269                                                      
REMARK     cmd  = \                                                             
REMARK            /dls_sw/apps/GPhL/BUSTER/20230614/autoBUSTER/bin/linux64/refin
REMARK            -p \                                                          
REMARK            /dls/labxchem/data/lb32627/lb32627-65/processing/analysis/mode
REMARK            -m \                                                          
REMARK            /dls/labxchem/data/lb32627/lb32627-65/processing/analysis/mode
REMARK            -l \                                                          
REMARK            /dls/labxchem/data/lb32627/lb32627-65/processing/analysis/mode
REMARK            -autoncs -M TLSbasic -d Refine_5                              
REMARK Files used:                                                              
REMARK   PDB              = Refine_5/pdbchk.pdb                                 
REMARK   MTZ              = /dls/labxchem/data/lb32627/lb32627-65/processing/ana
REMARK output written to subdirectory = Refine_5                                
REMARK best refinement for F,SIGF with R/Rfree 0.2356/0.2600                    
REMARK header records are copied from input PDB file (apart from REMARK 3!)     
REMARK --------------------- added by autoBUSTER -------------------------------
REMARK --------------------- added by autoBUSTER -------------------------------
REMARK run at   = Thu Jul  6 13:35:18 BST 2023                                  
REMARK     in   = /dls/labxchem/data/lb32627/lb32627-65/processing/analysis/mode
REMARK     user = kyf22269                                                      
REMARK     cmd  = \                                                             
REMARK            /dls_sw/apps/GPhL/BUSTER/20230614/autoBUSTER/bin/linux64/refin
REMARK            -p \                                                          
REMARK            /dls/labxchem/data/lb32627/lb32627-65/processing/analysis/mode
REMARK            -m \                                                          
REMARK            /dls/labxchem/data/lb32627/lb32627-65/processing/analysis/mode
REMARK            -l \                                                          
REMARK            /dls/labxchem/data/lb32627/lb32627-65/processing/analysis/mode
REMARK            -autoncs -M TLSbasic -d Refine_4                              
REMARK Files used:                                                              
REMARK   PDB              = Refine_4/pdbchk.pdb                                 
REMARK   MTZ              = /dls/labxchem/data/lb32627/lb32627-65/processing/ana
REMARK output written to subdirectory = Refine_4                                
REMARK best refinement for F,SIGF with R/Rfree 0.2307/0.2449                    
REMARK header records are copied from input PDB file (apart from REMARK 3!)     
REMARK --------------------- added by autoBUSTER -------------------------------
REMARK   2                                                            
REMARK   2 RESOLUTION.    1.36 ANGSTROMS.
REMARK   3
REMARK   3 REFINEMENT.
REMARK   3   PROGRAM     : BUSTER 2.10.4 (14-JUN-2023)
REMARK   3   AUTHORS     : BRICOGNE,BLANC,BRANDL,FLENSBURG,KELLER,
REMARK   3               : PACIOREK,ROVERSI,SHARFF,SMART,VONRHEIN,WOMACK;
REMARK   3               : MATTHEWS,TEN EYCK,TRONRUD
REMARK   3
REMARK   3  DATA USED IN REFINEMENT.
REMARK   3   RESOLUTION RANGE HIGH (ANGSTROMS) : 1.360
REMARK   3   RESOLUTION RANGE LOW  (ANGSTROMS) : 54.40
REMARK   3   DATA CUTOFF            (SIGMA(F)) : 0.000
REMARK   3   COMPLETENESS FOR RANGE        (%) : 96.6
REMARK   3   NUMBER OF REFLECTIONS             : 42745
REMARK   3
REMARK   3  FIT TO DATA USED IN REFINEMENT.
REMARK   3   CROSS-VALIDATION METHOD          : THROUGHOUT
REMARK   3   FREE R VALUE TEST SET SELECTION  : RANDOM
REMARK   3   R VALUE     (WORKING + TEST SET) : 0.2283
REMARK   3   R VALUE            (WORKING SET) : 0.2269
REMARK   3   FREE R VALUE                     : 0.2552
REMARK   3   FREE R VALUE TEST SET SIZE   (%) : 5.080
REMARK   3   FREE R VALUE TEST SET COUNT      : 2172
REMARK   3   ESTIMATED ERROR OF FREE R VALUE  : NULL
REMARK   3
REMARK   3  FIT IN THE HIGHEST RESOLUTION BIN.
REMARK   3   TOTAL NUMBER OF BINS USED           : 51
REMARK   3   BIN RESOLUTION RANGE HIGH       (A) : 1.36
REMARK   3   BIN RESOLUTION RANGE LOW        (A) : 1.38
REMARK   3   BIN COMPLETENESS (WORKING+TEST) (%) : 45.73
REMARK   3   REFLECTIONS IN BIN   (WORKING+TEST) : 855
REMARK   3   BIN R VALUE          (WORKING+TEST) : 0.4789
REMARK   3   REFLECTIONS IN BIN    (WORKING SET) : 820
REMARK   3   BIN R VALUE           (WORKING SET) : 0.4714
REMARK   3   BIN FREE R VALUE                    : 0.6558
REMARK   3   BIN FREE R VALUE TEST SET SIZE  (%) : 4.09
REMARK   3   BIN FREE R VALUE TEST SET COUNT     : 35
REMARK   3   ESTIMATED ERROR OF BIN FREE R VALUE : NULL
REMARK   3
REMARK   3  NUMBER OF NON-HYDROGEN ATOMS USED IN REFINEMENT.
REMARK   3   PROTEIN ATOMS            : 1476
REMARK   3   NUCLEIC ACID ATOMS       : 0
REMARK   3   HETEROGEN ATOMS          : 40
REMARK   3   SOLVENT ATOMS            : 110
REMARK   3
REMARK   3  B VALUES.
REMARK   3   FROM WILSON PLOT           (A**2) : 26.74
REMARK   3   MEAN B VALUE      (OVERALL, A**2) : 41.92
REMARK   3   OVERALL ANISOTROPIC B VALUE.
REMARK   3    B11 (A**2) : -3.41260
REMARK   3    B22 (A**2) : -3.41260
REMARK   3    B33 (A**2) : 6.82530
REMARK   3    B12 (A**2) : 0.00000
REMARK   3    B13 (A**2) : 0.00000
REMARK   3    B23 (A**2) : 0.00000
REMARK   3
REMARK   3  ESTIMATED COORDINATE ERROR.
REMARK   3   ESD FROM LUZZATI PLOT                    (A) : 0.25
REMARK   3   DPI (BLOW EQ-10) BASED ON R VALUE        (A) : 0.071
REMARK   3   DPI (BLOW EQ-9) BASED ON FREE R VALUE    (A) : 0.072
REMARK   3   DPI (CRUICKSHANK) BASED ON R VALUE       (A) : 0.068
REMARK   3   DPI (CRUICKSHANK) BASED ON FREE R VALUE  (A) : 0.070
REMARK   3
REMARK   3   REFERENCES: BLOW, D. (2002) ACTA CRYST D58, 792-797
REMARK   3               CRUICKSHANK, D.W.J. (1999) ACTA CRYST D55, 583-601
REMARK   3
REMARK   3  CORRELATION COEFFICIENTS.
REMARK   3   CORRELATION COEFFICIENT FO-FC      : 0.953
REMARK   3   CORRELATION COEFFICIENT FO-FC FREE : 0.945
REMARK   3
REMARK   3  X-RAY WEIGHT : 6.44
REMARK   3
REMARK   3  GEOMETRY FUNCTION.                                                  
REMARK   3   RESTRAINT LIBRARIES.                                               
REMARK   3    NUMBER OF LIBRARIES USED :   9                                    
REMARK   3    LIBRARY  1 : protgeo_eh99.dat (V1.6.4.20) 20220523  STANDARD      
REMARK   3                 AMINO ACID DICTIONARY. BONDS AND ANGLES FROM         
REMARK   3                 ENGH AND HUBER EH99. OTHER VALUES BASED ON           
REMARK   3                 PREVIOUS TNT OR TAKEN FROM CCP4. INCLUDES            
REMARK   3                 HYDROGEN ATOMS.                                      
REMARK   3    LIBRARY  2 : exoticaa.dat (V1.3.4.16) 20220523  COLLECTION        
REMARK   3                 OF NON-STANDARD AMINO ACIDS, MAINLY EH91             
REMARK   3                 WITHOUT IDEAL DISTANCE INFO                          
REMARK   3    LIBRARY  3 : nuclgeo.dat (V1.13.4.9) 20221011                     
REMARK   3    LIBRARY  4 : bcorrel.dat (V1.15.10.2) 20190616                    
REMARK   3    LIBRARY  5 : contact.dat (V1.15.12.10) 20191121                   
REMARK   3    LIBRARY  6 : idealdist_contact.dat (V1.3.4.13) 20220125           
REMARK   3                 IDEAL-DISTANCE CONTACT TERM DATA AS USED IN          
REMARK   3                 PROLSQ. VALUES USED HERE ARE BASED ON DATA           
REMARK   3                 HARVESTING OF PDB AS OF 20190109.                    
REMARK   3    LIBRARY  7 : restraints for LIG (unknown) from cif                
REMARK   3                 dictionary Z1428159350.cif; generated by GRADE       
REMARK   3                 1.2.21 (Feb 03 2022) from SMILES                     
REMARK   3                 CC(N)c1cn(nn1)c2ccccc2 using MOGUL                   
REMARK   3                 1.8.5(274361), CSD as541be, with quantum             
REMARK   3                 mechanics RM1                                        
REMARK   3    LIBRARY  8 : restraints for DMS (DIMETHYL SULFOXIDE) from         
REMARK   3                 cif dictionary DMS.cif; generated by grade2          
REMARK   3                 version 1.1.0a7 from                                 
REMARK   3                 PDB_chemical_components_definition_file              
REMARK   3                 ftp://ftp.ebi.ac.uk/pub/databases/msd/pdbechem_v     
REMARK   3                 2/D/DMS/DMS.cif using RDKit 2021.03.4                
REMARK   3                 ((DatabaseID PDB-DMS))                               
REMARK   3    LIBRARY  9 : assume.dat (V1.9.4.3) 20221011                       
REMARK   3                                                                      
REMARK   3   NUMBER OF GEOMETRIC FUNCTION TERMS DEFINED : 15                    
REMARK   3   TERM                          COUNT    WEIGHT   FUNCTION.          
REMARK   3    BOND LENGTHS              :   1634 ;   2.00 ;  HARMONIC           
REMARK   3    BOND ANGLES               :   2232 ;   2.00 ;  HARMONIC           
REMARK   3    TORSION ANGLES            :    549 ;   2.00 ;  SINUSOIDAL         
REMARK   3    TRIGONAL CARBON PLANES    :   NULL ;   NULL ;  NULL               
REMARK   3    GENERAL PLANES            :    305 ;   5.00 ;  HARMONIC           
REMARK   3    ISOTROPIC THERMAL FACTORS :   1604 ;  10.00 ;  HARMONIC           
REMARK   3    BAD NON-BONDED CONTACTS   :   NULL ;   NULL ;  NULL               
REMARK   3    IMPROPER TORSIONS         :   NULL ;   NULL ;  NULL               
REMARK   3    PSEUDOROTATION ANGLES     :   NULL ;   NULL ;  NULL               
REMARK   3    CHIRAL IMPROPER TORSION   :    207 ;   5.00 ;  SEMIHARMONIC       
REMARK   3    SUM OF OCCUPANCIES        :   NULL ;   NULL ;  NULL               
REMARK   3    UTILITY DISTANCES         :   NULL ;   NULL ;  NULL               
REMARK   3    UTILITY ANGLES            :   NULL ;   NULL ;  NULL               
REMARK   3    UTILITY TORSION           :   NULL ;   NULL ;  NULL               
REMARK   3    IDEAL-DIST CONTACT TERM   :   1337 ;   4.00 ;  SEMIHARMONIC       
REMARK   3                                                                      
REMARK   3   RMS DEVIATIONS FROM IDEAL VALUES.                                  
REMARK   3   BOND LENGTHS                       (A) : 0.012                     
REMARK   3   BOND ANGLES                  (DEGREES) : 1.13                      
REMARK   3   PEPTIDE OMEGA TORSION ANGLES (DEGREES) : 4.42                      
REMARK   3   OTHER TORSION ANGLES         (DEGREES) : 15.99                     
REMARK   3                                                                      
REMARK   3   SIMILARITY.                                                        
REMARK   3    NCS.                                                              
REMARK   3     NCS METHOD: NONE                                                 
REMARK   3    TARGET RESTRAINTS.                                                
REMARK   3     TARGET REPRESENTATION : NONE                                     
REMARK   3     TARGET STRUCTURE : NULL                                          
REMARK   3                                                                      
REMARK   3  TLS DETAILS.                                                        
REMARK   3   NUMBER OF TLS GROUPS  :            2                               
REMARK   3                                                                      
REMARK   3   TLS GROUP :            1                                           
REMARK   3    SET : { A|* }                                                     
REMARK   3    ORIGIN FOR THE GROUP (A):  -14.3931   -1.1384  -19.7963           
REMARK   3    T TENSOR                                                          
REMARK   3     T11:    0.0695 T22:    0.0170                                    
REMARK   3     T33:   -0.1443 T12:    0.1924                                    
REMARK   3     T13:    0.0540 T23:    0.0729                                    
REMARK   3    L TENSOR                                                          
REMARK   3     L11:    2.8285 L22:    2.2191                                    
REMARK   3     L33:    2.2122 L12:   -1.5045                                    
REMARK   3     L13:    0.5201 L23:    0.9272                                    
REMARK   3    S TENSOR                                                          
REMARK   3     S11:    0.4748 S12:    0.3785 S13:    0.2387                     
REMARK   3     S21:   -0.3876 S22:   -0.3628 S23:   -0.1769                     
REMARK   3     S31:    0.0102 S32:    0.3391 S33:   -0.1120                     
REMARK   3                                                                      
REMARK   3   TLS GROUP :            2                                           
REMARK   3    SET : { B|* }                                                     
REMARK   3    ORIGIN FOR THE GROUP (A):  -18.6831    1.2910  -15.9044           
REMARK   3    T TENSOR                                                          
REMARK   3     T11:    0.1175 T22:    0.0063                                    
REMARK   3     T33:   -0.0340 T12:    0.1471                                    
REMARK   3     T13:    0.0099 T23:    0.0154                                    
REMARK   3    L TENSOR                                                          
REMARK   3     L11:    1.5214 L22:    0.5127                                    
REMARK   3     L33:    1.2779 L12:   -0.7795                                    
REMARK   3     L13:    0.5344 L23:    0.1074                                    
REMARK   3    S TENSOR                                                          
REMARK   3     S11:    0.3407 S12:    0.1318 S13:    0.0567                     
REMARK   3     S21:   -0.1033 S22:   -0.2755 S23:    0.0643                     
REMARK   3     S31:    0.0967 S32:    0.1294 S33:   -0.0653                     
REMARK   3                                                                      
REMARK   3  REFINEMENT NOTES.                                                   
REMARK   3   NUMBER OF REFINEMENT NOTES :   1                                   
REMARK   3   NOTE   1 : IDEAL-DIST CONTACT TERM CONTACT SETUP. ALL ATOMS        
REMARK   3               HAVE CCP4 ATOM TYPE FROM LIBRARY                       
REMARK   3
REMARK   3  OTHER REFINEMENT REMARKS: NULL
REMARK   3
REMARK 290                                                            
REMARK 290 CRYSTALLOGRAPHIC SYMMETRY                                  
REMARK 290 SYMMETRY OPERATORS FOR SPACE GROUP: P 43 2 2               
REMARK 290                                                            
REMARK 290      SYMOP   SYMMETRY                                      
REMARK 290     NNNMMM   OPERATOR                                      
REMARK 290       1555   X,Y,Z                                         
REMARK 290       2555   -X,-Y,1/2+Z                                   
REMARK 290       3555   -Y,X,3/4+Z                                    
REMARK 290       4555   Y,-X,1/4+Z                                    
REMARK 290       5555   -X,Y,-Z                                       
REMARK 290       6555   X,-Y,1/2-Z                                    
REMARK 290       7555   Y,X,1/4-Z                                     
REMARK 290       8555   -Y,-X,3/4-Z                                   
REMARK 290                                                            
REMARK 290     WHERE NNN -> OPERATOR NUMBER                           
REMARK 290           MMM -> TRANSLATION VECTOR                        
REMARK 290                                                            
REMARK 290 CRYSTALLOGRAPHIC SYMMETRY TRANSFORMATIONS                  
REMARK 290 THE FOLLOWING TRANSFORMATIONS OPERATE ON THE ATOM/HETATM   
REMARK 290 RECORDS IN THIS ENTRY TO PRODUCE CRYSTALLOGRAPHICALLY      
REMARK 290 RELATED MOLECULES.                                         
REMARK 290   SMTRY1   1  1.000000  0.000000  0.000000        0.00000
REMARK 290   SMTRY2   1  0.000000  1.000000  0.000000        0.00000
REMARK 290   SMTRY3   1  0.000000  0.000000  1.000000        0.00000
REMARK 290   SMTRY1   2 -1.000000  0.000000  0.000000        0.00000
REMARK 290   SMTRY2   2  0.000000 -1.000000  0.000000        0.00000
REMARK 290   SMTRY3   2  0.000000  0.000000  1.000000      108.79650
REMARK 290   SMTRY1   3  0.000000 -1.000000  0.000000        0.00000
REMARK 290   SMTRY2   3  1.000000  0.000000  0.000000        0.00000
REMARK 290   SMTRY3   3  0.000000  0.000000  1.000000      163.19475
REMARK 290   SMTRY1   4  0.000000  1.000000  0.000000        0.00000
REMARK 290   SMTRY2   4 -1.000000  0.000000  0.000000        0.00000
REMARK 290   SMTRY3   4  0.000000  0.000000  1.000000       54.39825
REMARK 290   SMTRY1   5 -1.000000  0.000000  0.000000        0.00000
REMARK 290   SMTRY2   5  0.000000  1.000000  0.000000        0.00000
REMARK 290   SMTRY3   5  0.000000  0.000000 -1.000000        0.00000
REMARK 290   SMTRY1   6  1.000000  0.000000  0.000000        0.00000
REMARK 290   SMTRY2   6  0.000000 -1.000000  0.000000        0.00000
REMARK 290   SMTRY3   6  0.000000  0.000000 -1.000000      108.79650
REMARK 290   SMTRY1   7  0.000000  1.000000  0.000000        0.00000
REMARK 290   SMTRY2   7  1.000000  0.000000  0.000000        0.00000
REMARK 290   SMTRY3   7  0.000000  0.000000 -1.000000       54.39825
REMARK 290   SMTRY1   8  0.000000 -1.000000  0.000000        0.00000
REMARK 290   SMTRY2   8 -1.000000  0.000000  0.000000        0.00000
REMARK 290   SMTRY3   8  0.000000  0.000000 -1.000000      163.19475
REMARK 290                                                            
REMARK 290 REMARK: NULL                                               
CRYST1   42.420   42.420  217.593  90.00  90.00  90.00 P 43 2 2                 


$$$$
Zx0806a_ligand
  PyMOL3.0          3D                             0

 14 15  0  0  0  0  0  0  0  0999 V2000
   -4.3020    7.8850  -23.6200 C   0  0  0  0  0  0  0  0  0  0  0  0
   -4.3050    6.4380  -23.3720 N   0  0  0  0  0  0  0  0  0  0  0  0
   -2.9050    8.3200  -24.0490 C   0  0  0  0  0  0  0  0  0  0  0  0
   -5.0240    7.4860  -25.9540 N   0  0  0  0  0  0  0  0  0  0  0  0
   -5.2430    8.1150  -24.7680 C   0  0  0  0  0  0  0  0  0  0  0  0
   -6.0050    7.7700  -26.7780 N   0  0  0  0  0  0  0  0  0  0  0  0
   -6.4050    8.8250  -24.8670 C   0  0  0  0  0  0  0  0  0  0  0  0
   -6.8680    8.5680  -26.1100 N   0  0  0  0  0  0  0  0  0  0  0  0
   -8.1530    8.8360  -26.6650 C   0  0  0  0  0  0  0  0  0  0  0  0
   -8.7270   10.0900  -26.5130 C   0  0  0  0  0  0  0  0  0  0  0  0
  -10.0310   10.2930  -26.9250 C   0  0  0  0  0  0  0  0  0  0  0  0
  -10.7530    9.2650  -27.4920 C   0  0  0  0  0  0  0  0  0  0  0  0
  -10.1650    8.0340  -27.6850 C   0  0  0  0  0  0  0  0  0  0  0  0
   -8.8620    7.8120  -27.2760 C   0  0  0  0  0  0  0  0  0  0  0  0
  1  3  1  0  0  0  0
  1  5  1  0  0  0  0
  1  2  1  0  0  0  0
  4  6  4  0  0  0  0
  4  5  4  0  0  0  0
  5  7  4  0  0  0  0
  6  8  4  0  0  0  0
  7  8  4  0  0  0  0
  8  9  1  0  0  0  0
  9 10  4  0  0  0  0
  9 14  4  0  0  0  0
 10 11  4  0  0  0  0
 11 12  4  0  0  0  0
 12 13  4  0  0  0  0
 13 14  4  0  0  0  0
M  END
>  <pdb_header>
COMPND    XX01ZVNS2B-x0806_B_301_XX01ZVNS2B-x1291+B+301+1


$$$$
Zx0819a
  PyMOL3.0          3D                             0

 11 11  0  0  0  0  0  0  0  0999 V2000
   -8.6000    6.1010  -18.7560 N   0  0  0  0  0  0  0  0  0  0  0  0
   -9.0190    5.0060  -16.3080 C   0  0  0  0  0  0  0  0  0  0  0  0
   -9.6850    3.9110  -18.5520 O   0  0  0  0  0  0  0  0  0  0  0  0
   -7.1410    6.0760  -18.5450 C   0  0  0  0  0  0  0  0  0  0  0  0
   -4.4900    6.0080  -19.7270 N   0  0  0  0  0  0  0  0  0  0  0  0
  -10.8710    5.9480  -17.8440 O   0  0  0  0  0  0  0  0  0  0  0  0
   -6.5080    7.3110  -19.1820 C   0  0  0  0  0  0  0  0  0  0  0  0
   -4.9920    7.2480  -19.1020 C   0  0  0  0  0  0  0  0  0  0  0  0
   -5.0340    4.8150  -19.0470 C   0  0  0  0  0  0  0  0  0  0  0  0
   -6.5520    4.7970  -19.1310 C   0  0  0  0  0  0  0  0  0  0  0  0
   -9.6580    5.1970  -17.9260 S   0  0  0  0  0  0  0  0  0  0  0  0
  1  4  1  0  0  0  0
  4  7  1  0  0  0  0
  4 10  1  0  0  0  0
  5  8  1  0  0  0  0
  6 11  2  0  0  0  0
  7  8  1  0  0  0  0
  5  9  1  0  0  0  0
  9 10  1  0  0  0  0
  1 11  1  0  0  0  0
  2 11  1  0  0  0  0
  3 11  2  0  0  0  0
M  END
>  <pdb_header>
HEADER    ----                                    18-MAY-23                     
TITLE     ---                                                                   
EXPDTA    X-RAY DIFFRACTION                                                     
REMARK --------------------- added by autoBUSTER ---------------------------------START
REMARK run at   = Fri Sep 29 16:28:56 BST 2023
REMARK     in   = /dls/labxchem/data/lb32627/lb32627-65/processing/analysis/model_building/XX01ZVNS2B-x0819
REMARK     user = kyf22269
REMARK     cmd  = \
REMARK            /dls_sw/apps/GPhL/BUSTER/20230726/autoBUSTER/bin/linux64/refine \
REMARK            -p \
REMARK            /dls/labxchem/data/lb32627/lb32627-65/processing/analysis/model_building/XX01ZVNS2B-x0819/cootOut/Refi
REMARK            -m \
REMARK            /dls/labxchem/data/lb32627/lb32627-65/processing/analysis/model_building/XX01ZVNS2B-x0819/XX01ZVNS2B-x
REMARK            -l \
REMARK            /dls/labxchem/data/lb32627/lb32627-65/processing/analysis/model_building/XX01ZVNS2B-x0819/Z1491215378.
REMARK            -autoncs -M TLSbasic -d Refine_12
REMARK Files used:
REMARK   PDB              = Refine_12/pdbchk.pdb
REMARK   MTZ              = /dls/labxchem/data/lb32627/lb32627-65/processing/analysis/model_building/XX01ZVNS2B-x0819/XX
REMARK output written to subdirectory = Refine_12
REMARK best refinement for F,SIGF with R/Rfree 0.2186/0.2420
REMARK header records are copied from input PDB file (apart from REMARK 3!)
REMARK --------------------- added by autoBUSTER -----------------------------------END
REMARK --------------------- added by autoBUSTER -------------------------------
REMARK run at   = Fri Aug 11 10:32:33 BST 2023                                  
REMARK     in   = /dls/labxchem/data/lb32627/lb32627-65/processing/analysis/mode
REMARK     user = kyf22269                                                      
REMARK     cmd  = \                                                             
REMARK            /dls_sw/apps/GPhL/BUSTER/20230614/autoBUSTER/bin/linux64/refin
REMARK            -p \                                                          
REMARK            /dls/labxchem/data/lb32627/lb32627-65/processing/analysis/mode
REMARK            -m \                                                          
REMARK            /dls/labxchem/data/lb32627/lb32627-65/processing/analysis/mode
REMARK            -l \                                                          
REMARK            /dls/labxchem/data/lb32627/lb32627-65/processing/analysis/mode
REMARK            -autoncs -M TLSbasic -d Refine_11                             
REMARK Files used:                                                              
REMARK   PDB              = Refine_11/pdbchk.pdb                                
REMARK   MTZ              = /dls/labxchem/data/lb32627/lb32627-65/processing/ana
REMARK output written to subdirectory = Refine_11                               
REMARK best refinement for F,SIGF with R/Rfree 0.2186/0.2422                    
REMARK header records are copied from input PDB file (apart from REMARK 3!)     
REMARK --------------------- added by autoBUSTER -------------------------------
REMARK --------------------- added by autoBUSTER -------------------------------
REMARK run at   = Wed Aug  9 14:37:00 BST 2023                                  
REMARK     in   = /dls/labxchem/data/lb32627/lb32627-65/processing/analysis/mode
REMARK     user = kyf22269                                                      
REMARK     cmd  = \                                                             
REMARK            /dls_sw/apps/GPhL/BUSTER/20230614/autoBUSTER/bin/linux64/refin
REMARK            -p \                                                          
REMARK            /dls/labxchem/data/lb32627/lb32627-65/processing/analysis/mode
REMARK            -m \                                                          
REMARK            /dls/labxchem/data/lb32627/lb32627-65/processing/analysis/mode
REMARK            -l \                                                          
REMARK            /dls/labxchem/data/lb32627/lb32627-65/processing/analysis/mode
REMARK            -autoncs -M TLSbasic -d Refine_10                             
REMARK Files used:                                                              
REMARK   PDB              = Refine_10/pdbchk.pdb                                
REMARK   MTZ              = /dls/labxchem/data/lb32627/lb32627-65/processing/ana
REMARK output written to subdirectory = Refine_10                               
REMARK best refinement for F,SIGF with R/Rfree 0.2194/0.2472                    
REMARK header records are copied from input PDB file (apart from REMARK 3!)     
REMARK --------------------- added by autoBUSTER -------------------------------
REMARK --------------------- added by autoBUSTER -------------------------------
REMARK run at   = Wed Aug  9 11:51:49 BST 2023                                  
REMARK     in   = /dls/labxchem/data/lb32627/lb32627-65/processing/analysis/mode
REMARK     user = kyf22269                                                      
REMARK     cmd  = \                                                             
REMARK            /dls_sw/apps/GPhL/BUSTER/20230614/autoBUSTER/bin/linux64/refin
REMARK            -p \                                                          
REMARK            /dls/labxchem/data/lb32627/lb32627-65/processing/analysis/mode
REMARK            -m \                                                          
REMARK            /dls/labxchem/data/lb32627/lb32627-65/processing/analysis/mode
REMARK            -l \                                                          
REMARK            /dls/labxchem/data/lb32627/lb32627-65/processing/analysis/mode
REMARK            -autoncs -M TLSbasic -d Refine_9                              
REMARK Files used:                                                              
REMARK   PDB              = Refine_9/pdbchk.pdb                                 
REMARK   MTZ              = /dls/labxchem/data/lb32627/lb32627-65/processing/ana
REMARK output written to subdirectory = Refine_9                                
REMARK best refinement for F,SIGF with R/Rfree 0.2203/0.2477                    
REMARK header records are copied from input PDB file (apart from REMARK 3!)     
REMARK --------------------- added by autoBUSTER -------------------------------
REMARK --------------------- added by autoBUSTER -------------------------------
REMARK run at   = Fri Aug  4 19:09:05 BST 2023                                  
REMARK     in   = /dls/labxchem/data/lb32627/lb32627-65/processing/analysis/mode
REMARK     user = kyf22269                                                      
REMARK     cmd  = \                                                             
REMARK            /dls_sw/apps/GPhL/BUSTER/20230614/autoBUSTER/bin/linux64/refin
REMARK            -p \                                                          
REMARK            /dls/labxchem/data/lb32627/lb32627-65/processing/analysis/mode
REMARK            -m \                                                          
REMARK            /dls/labxchem/data/lb32627/lb32627-65/processing/analysis/mode
REMARK            -l \                                                          
REMARK            /dls/labxchem/data/lb32627/lb32627-65/processing/analysis/mode
REMARK            -autoncs -M TLSbasic -d Refine_8                              
REMARK Files used:                                                              
REMARK   PDB              = Refine_8/pdbchk.pdb                                 
REMARK   MTZ              = /dls/labxchem/data/lb32627/lb32627-65/processing/ana
REMARK output written to subdirectory = Refine_8                                
REMARK best refinement for F,SIGF with R/Rfree 0.2200/0.2409                    
REMARK header records are copied from input PDB file (apart from REMARK 3!)     
REMARK --------------------- added by autoBUSTER -------------------------------
REMARK --------------------- added by autoBUSTER -------------------------------
REMARK run at   = Fri Aug  4 18:36:26 BST 2023                                  
REMARK     in   = /dls/labxchem/data/lb32627/lb32627-65/processing/analysis/mode
REMARK     user = kyf22269                                                      
REMARK     cmd  = \                                                             
REMARK            /dls_sw/apps/GPhL/BUSTER/20230614/autoBUSTER/bin/linux64/refin
REMARK            -p \                                                          
REMARK            /dls/labxchem/data/lb32627/lb32627-65/processing/analysis/mode
REMARK            -m \                                                          
REMARK            /dls/labxchem/data/lb32627/lb32627-65/processing/analysis/mode
REMARK            -l \                                                          
REMARK            /dls/labxchem/data/lb32627/lb32627-65/processing/analysis/mode
REMARK            -autoncs -M TLSbasic -d Refine_7                              
REMARK Files used:                                                              
REMARK   PDB              = Refine_7/pdbchk.pdb                                 
REMARK   MTZ              = /dls/labxchem/data/lb32627/lb32627-65/processing/ana
REMARK output written to subdirectory = Refine_7                                
REMARK best refinement for F,SIGF with R/Rfree 0.2193/0.2451                    
REMARK header records are copied from input PDB file (apart from REMARK 3!)     
REMARK --------------------- added by autoBUSTER -------------------------------
REMARK --------------------- added by autoBUSTER -------------------------------
REMARK run at   = Wed Aug  2 09:55:17 BST 2023                                  
REMARK     in   = /dls/labxchem/data/lb32627/lb32627-65/processing/analysis/mode
REMARK     user = kyf22269                                                      
REMARK     cmd  = \                                                             
REMARK            /dls_sw/apps/GPhL/BUSTER/20230614/autoBUSTER/bin/linux64/refin
REMARK            -p \                                                          
REMARK            /dls/labxchem/data/lb32627/lb32627-65/processing/analysis/mode
REMARK            -m \                                                          
REMARK            /dls/labxchem/data/lb32627/lb32627-65/processing/analysis/mode
REMARK            -l \                                                          
REMARK            /dls/labxchem/data/lb32627/lb32627-65/processing/analysis/mode
REMARK            -autoncs -M TLSbasic -d Refine_6                              
REMARK Files used:                                                              
REMARK   PDB              = Refine_6/pdbchk.pdb                                 
REMARK   MTZ              = /dls/labxchem/data/lb32627/lb32627-65/processing/ana
REMARK output written to subdirectory = Refine_6                                
REMARK best refinement for F,SIGF with R/Rfree 0.2179/0.2430                    
REMARK header records are copied from input PDB file (apart from REMARK 3!)     
REMARK --------------------- added by autoBUSTER -------------------------------
REMARK --------------------- added by autoBUSTER -------------------------------
REMARK run at   = Tue May 30 14:42:48 BST 2023                                  
REMARK     in   = /dls/labxchem/data/lb32627/lb32627-65/processing/analysis/mode
REMARK     user = xau79897                                                      
REMARK     cmd  = \                                                             
REMARK            /dls_sw/apps/GPhL/BUSTER/20230217/autoBUSTER/bin/linux64/refin
REMARK            -p \                                                          
REMARK            /dls/labxchem/data/lb32627/lb32627-65/processing/analysis/mode
REMARK            -m \                                                          
REMARK            /dls/labxchem/data/lb32627/lb32627-65/processing/analysis/mode
REMARK            -l \                                                          
REMARK            /dls/labxchem/data/lb32627/lb32627-65/processing/analysis/mode
REMARK            -autoncs -M TLSbasic -WAT -B user -Gelly gelly.dat \          
REMARK            StopOnGellySanityCheckError=no -d Refine_5                    
REMARK Files used:                                                              
REMARK   PDB              = Refine_5/pdbchk.pdb                                 
REMARK   MTZ              = /dls/labxchem/data/lb32627/lb32627-65/processing/ana
REMARK   Gelly commands       = /dls/labxchem/data/lb32627/lb32627-65/processing
REMARK output written to subdirectory = Refine_5                                
REMARK best refinement for F,SIGF with R/Rfree 0.2207/0.2413                    
REMARK header records are copied from input PDB file (apart from REMARK 3!)     
REMARK --------------------- added by autoBUSTER -------------------------------
REMARK --------------------- added by autoBUSTER -------------------------------
REMARK run at   = Tue May 23 17:15:33 BST 2023                                  
REMARK     in   = /dls/labxchem/data/lb32627/lb32627-65/processing/analysis/mode
REMARK     user = xau79897                                                      
REMARK     cmd  = \                                                             
REMARK            /dls_sw/apps/GPhL/BUSTER/20230217/autoBUSTER/bin/linux64/refin
REMARK            -p \                                                          
REMARK            /dls/labxchem/data/lb32627/lb32627-65/processing/analysis/mode
REMARK            -m \                                                          
REMARK            /dls/labxchem/data/lb32627/lb32627-65/processing/analysis/mode
REMARK            -l \                                                          
REMARK            /dls/labxchem/data/lb32627/lb32627-65/processing/analysis/mode
REMARK            -autoncs -M TLSbasic -d Refine_4                              
REMARK Files used:                                                              
REMARK   PDB              = Refine_4/pdbchk.pdb                                 
REMARK   MTZ              = /dls/labxchem/data/lb32627/lb32627-65/processing/ana
REMARK output written to subdirectory = Refine_4                                
REMARK best refinement for F,SIGF with R/Rfree 0.2285/0.2341                    
REMARK header records are copied from input PDB file (apart from REMARK 3!)     
REMARK --------------------- added by autoBUSTER -------------------------------
REMARK   2                                                            
REMARK   2 RESOLUTION.    1.38 ANGSTROMS.
REMARK   3
REMARK   3 REFINEMENT.
REMARK   3   PROGRAM     : BUSTER 2.10.4 (26-JUL-2023)
REMARK   3   AUTHORS     : BRICOGNE,BLANC,BRANDL,FLENSBURG,KELLER,
REMARK   3               : PACIOREK,ROVERSI,SHARFF,SMART,VONRHEIN,WOMACK;
REMARK   3               : MATTHEWS,TEN EYCK,TRONRUD
REMARK   3
REMARK   3  DATA USED IN REFINEMENT.
REMARK   3   RESOLUTION RANGE HIGH (ANGSTROMS) : 1.381
REMARK   3   RESOLUTION RANGE LOW  (ANGSTROMS) : 33.54
REMARK   3   DATA CUTOFF            (SIGMA(F)) : 0.000
REMARK   3   COMPLETENESS FOR RANGE        (%) : 93.7
REMARK   3   NUMBER OF REFLECTIONS             : 39983
REMARK   3
REMARK   3  FIT TO DATA USED IN REFINEMENT.
REMARK   3   CROSS-VALIDATION METHOD          : THROUGHOUT
REMARK   3   FREE R VALUE TEST SET SELECTION  : RANDOM
REMARK   3   R VALUE     (WORKING + TEST SET) : 0.2197
REMARK   3   R VALUE            (WORKING SET) : 0.2186
REMARK   3   FREE R VALUE                     : 0.2420
REMARK   3   FREE R VALUE TEST SET SIZE   (%) : 5.070
REMARK   3   FREE R VALUE TEST SET COUNT      : 2029
REMARK   3   ESTIMATED ERROR OF FREE R VALUE  : NULL
REMARK   3
REMARK   3  FIT IN THE HIGHEST RESOLUTION BIN.
REMARK   3   TOTAL NUMBER OF BINS USED           : 51
REMARK   3   BIN RESOLUTION RANGE HIGH       (A) : 1.38
REMARK   3   BIN RESOLUTION RANGE LOW        (A) : 1.41
REMARK   3   BIN COMPLETENESS (WORKING+TEST) (%) : 27.52
REMARK   3   REFLECTIONS IN BIN   (WORKING+TEST) : 800
REMARK   3   BIN R VALUE          (WORKING+TEST) : 0.5715
REMARK   3   REFLECTIONS IN BIN    (WORKING SET) : 760
REMARK   3   BIN R VALUE           (WORKING SET) : 0.5667
REMARK   3   BIN FREE R VALUE                    : 0.6664
REMARK   3   BIN FREE R VALUE TEST SET SIZE  (%) : 5.00
REMARK   3   BIN FREE R VALUE TEST SET COUNT     : 40
REMARK   3   ESTIMATED ERROR OF BIN FREE R VALUE : NULL
REMARK   3
REMARK   3  NUMBER OF NON-HYDROGEN ATOMS USED IN REFINEMENT.
REMARK   3   PROTEIN ATOMS            : 1476
REMARK   3   NUCLEIC ACID ATOMS       : 0
REMARK   3   HETEROGEN ATOMS          : 32
REMARK   3   SOLVENT ATOMS            : 135
REMARK   3
REMARK   3  B VALUES.
REMARK   3   FROM WILSON PLOT           (A**2) : 28.91
REMARK   3   MEAN B VALUE      (OVERALL, A**2) : 43.57
REMARK   3   OVERALL ANISOTROPIC B VALUE.
REMARK   3    B11 (A**2) : -4.44360
REMARK   3    B22 (A**2) : -4.44360
REMARK   3    B33 (A**2) : 8.88710
REMARK   3    B12 (A**2) : 0.00000
REMARK   3    B13 (A**2) : 0.00000
REMARK   3    B23 (A**2) : 0.00000
REMARK   3
REMARK   3  ESTIMATED COORDINATE ERROR.
REMARK   3   ESD FROM LUZZATI PLOT                    (A) : 0.28
REMARK   3   DPI (BLOW EQ-10) BASED ON R VALUE        (A) : 0.073
REMARK   3   DPI (BLOW EQ-9) BASED ON FREE R VALUE    (A) : 0.073
REMARK   3   DPI (CRUICKSHANK) BASED ON R VALUE       (A) : 0.069
REMARK   3   DPI (CRUICKSHANK) BASED ON FREE R VALUE  (A) : 0.070
REMARK   3
REMARK   3   REFERENCES: BLOW, D. (2002) ACTA CRYST D58, 792-797
REMARK   3               CRUICKSHANK, D.W.J. (1999) ACTA CRYST D55, 583-601
REMARK   3
REMARK   3  CORRELATION COEFFICIENTS.
REMARK   3   CORRELATION COEFFICIENT FO-FC      : 0.954
REMARK   3   CORRELATION COEFFICIENT FO-FC FREE : 0.949
REMARK   3
REMARK   3  X-RAY WEIGHT : 5.81
REMARK   3
REMARK   3  GEOMETRY FUNCTION.                                                  
REMARK   3   RESTRAINT LIBRARIES.                                               
REMARK   3    NUMBER OF LIBRARIES USED :  10                                    
REMARK   3    LIBRARY  1 : protgeo_eh99.dat (V1.6.4.20) 20220523  STANDARD      
REMARK   3                 AMINO ACID DICTIONARY. BONDS AND ANGLES FROM         
REMARK   3                 ENGH AND HUBER EH99. OTHER VALUES BASED ON           
REMARK   3                 PREVIOUS TNT OR TAKEN FROM CCP4. INCLUDES            
REMARK   3                 HYDROGEN ATOMS.                                      
REMARK   3    LIBRARY  2 : exoticaa.dat (V1.3.4.16) 20220523  COLLECTION        
REMARK   3                 OF NON-STANDARD AMINO ACIDS, MAINLY EH91             
REMARK   3                 WITHOUT IDEAL DISTANCE INFO                          
REMARK   3    LIBRARY  3 : nuclgeo.dat (V1.13.4.9) 20221011                     
REMARK   3    LIBRARY  4 : bcorrel.dat (V1.15.10.2) 20190616                    
REMARK   3    LIBRARY  5 : contact.dat (V1.15.12.10) 20191121                   
REMARK   3    LIBRARY  6 : idealdist_contact.dat (V1.3.4.14) 20230724           
REMARK   3                 IDEAL-DISTANCE CONTACT TERM DATA AS USED IN          
REMARK   3                 PROLSQ. VALUES USED HERE ARE BASEd ON DATA           
REMARK   3                 HARVESTING OF PDB AS OF 20190109                     
REMARK   3    LIBRARY  7 : restraints for LIG (unknown) from cif                
REMARK   3                 dictionary Z1491215378.cif; generated by GRADE       
REMARK   3                 1.2.21 (Feb 03 2022) from SMILES                     
REMARK   3                 CS(=O)(=O)NC1CCNCC1 using MOGUL 1.8.5(274361),       
REMARK   3                 CSD as541be, with quantum mechanics RM1              
REMARK   3    LIBRARY  8 : restraints for DMS (DIMETHYL SULFOXIDE) from         
REMARK   3                 cif dictionary DMS.cif; generated by grade2          
REMARK   3                 version 1.1.0a7 from                                 
REMARK   3                 PDB_chemical_components_definition_file              
REMARK   3                 ftp://ftp.ebi.ac.uk/pub/databases/msd/pdbechem_v     
REMARK   3                 2/D/DMS/DMS.cif using RDKit 2021.03.4                
REMARK   3                 ((DatabaseID PDB-DMS))                               
REMARK   3    LIBRARY  9 : restraints for SO4 (SULFATE ION) from cif            
REMARK   3                 dictionary SO4.cif; generated by grade2 version      
REMARK   3                 1.1.0a7 from                                         
REMARK   3                 PDB_chemical_components_definition_file              
REMARK   3                 ftp://ftp.ebi.ac.uk/pub/databases/msd/pdbechem_v     
REMARK   3                 2/S/SO4/SO4.cif using RDKit 2021.03.4                
REMARK   3                 ((DatabaseID PDB-SO4))                               
REMARK   3    LIBRARY 10 : assume.dat (V1.9.4.3) 20221011                       
REMARK   3                                                                      
REMARK   3   NUMBER OF GEOMETRIC FUNCTION TERMS DEFINED : 15                    
REMARK   3   TERM                          COUNT    WEIGHT   FUNCTION.          
REMARK   3    BOND LENGTHS              :   1577 ;   2.00 ;  HARMONIC           
REMARK   3    BOND ANGLES               :   2145 ;   2.00 ;  HARMONIC           
REMARK   3    TORSION ANGLES            :    538 ;   2.00 ;  SINUSOIDAL         
REMARK   3    TRIGONAL CARBON PLANES    :   NULL ;   NULL ;  NULL               
REMARK   3    GENERAL PLANES            :    268 ;   5.00 ;  HARMONIC           
REMARK   3    ISOTROPIC THERMAL FACTORS :   1577 ;  10.00 ;  HARMONIC           
REMARK   3    BAD NON-BONDED CONTACTS   :   NULL ;   NULL ;  NULL               
REMARK   3    IMPROPER TORSIONS         :   NULL ;   NULL ;  NULL               
REMARK   3    PSEUDOROTATION ANGLES     :   NULL ;   NULL ;  NULL               
REMARK   3    CHIRAL IMPROPER TORSION   :    195 ;   5.00 ;  SEMIHARMONIC       
REMARK   3    SUM OF OCCUPANCIES        :   NULL ;   NULL ;  NULL               
REMARK   3    UTILITY DISTANCES         :   NULL ;   NULL ;  NULL               
REMARK   3    UTILITY ANGLES            :   NULL ;   NULL ;  NULL               
REMARK   3    UTILITY TORSION           :   NULL ;   NULL ;  NULL               
REMARK   3    IDEAL-DIST CONTACT TERM   :   1363 ;   4.00 ;  SEMIHARMONIC       
REMARK   3                                                                      
REMARK   3   RMS DEVIATIONS FROM IDEAL VALUES.                                  
REMARK   3   BOND LENGTHS                       (A) : 0.012                     
REMARK   3   BOND ANGLES                  (DEGREES) : 1.13                      
REMARK   3   PEPTIDE OMEGA TORSION ANGLES (DEGREES) : 4.39                      
REMARK   3   OTHER TORSION ANGLES         (DEGREES) : 15.84                     
REMARK   3                                                                      
REMARK   3   SIMILARITY.                                                        
REMARK   3    NCS.                                                              
REMARK   3     NCS METHOD: NONE                                                 
REMARK   3    TARGET RESTRAINTS.                                                
REMARK   3     TARGET REPRESENTATION : NONE                                     
REMARK   3     TARGET STRUCTURE : NULL                                          
REMARK   3                                                                      
REMARK   3  TLS DETAILS.                                                        
REMARK   3   NUMBER OF TLS GROUPS  :            2                               
REMARK   3                                                                      
REMARK   3   TLS GROUP :            1                                           
REMARK   3    SET : { A|* }                                                     
REMARK   3    ORIGIN FOR THE GROUP (A):  -13.6747   -1.3233  -19.2783           
REMARK   3    T TENSOR                                                          
REMARK   3     T11:    0.0199 T22:    0.0287                                    
REMARK   3     T33:   -0.1199 T12:    0.1355                                    
REMARK   3     T13:    0.0703 T23:    0.0648                                    
REMARK   3    L TENSOR                                                          
REMARK   3     L11:    2.3772 L22:    2.2414                                    
REMARK   3     L33:    2.1875 L12:   -1.3312                                    
REMARK   3     L13:    0.7573 L23:    0.3890                                    
REMARK   3    S TENSOR                                                          
REMARK   3     S11:    0.3923 S12:    0.3756 S13:    0.2320                     
REMARK   3     S21:   -0.3993 S22:   -0.3278 S23:   -0.2133                     
REMARK   3     S31:   -0.0270 S32:    0.4523 S33:   -0.0646                     
REMARK   3                                                                      
REMARK   3   TLS GROUP :            2                                           
REMARK   3    SET : { B|* }                                                     
REMARK   3    ORIGIN FOR THE GROUP (A):  -18.6464    1.1394  -15.8664           
REMARK   3    T TENSOR                                                          
REMARK   3     T11:    0.0682 T22:   -0.0044                                    
REMARK   3     T33:   -0.0274 T12:    0.0991                                    
REMARK   3     T13:    0.0214 T23:    0.0221                                    
REMARK   3    L TENSOR                                                          
REMARK   3     L11:    1.2096 L22:    1.0521                                    
REMARK   3     L33:    1.6086 L12:   -0.9375                                    
REMARK   3     L13:    0.4544 L23:    0.0704                                    
REMARK   3    S TENSOR                                                          
REMARK   3     S11:    0.2431 S12:    0.1141 S13:    0.0682                     
REMARK   3     S21:   -0.1633 S22:   -0.2386 S23:    0.0215                     
REMARK   3     S31:   -0.0013 S32:    0.1707 S33:   -0.0045                     
REMARK   3                                                                      
REMARK   3  REFINEMENT NOTES.                                                   
REMARK   3   NUMBER OF REFINEMENT NOTES :   1                                   
REMARK   3   NOTE   1 : IDEAL-DIST CONTACT TERM CONTACT SETUP. ALL ATOMS        
REMARK   3               HAVE CCP4 ATOM TYPE FROM LIBRARY                       
REMARK   3
REMARK   3  OTHER REFINEMENT REMARKS: NULL
REMARK   3
REMARK 290                                                            
REMARK 290 CRYSTALLOGRAPHIC SYMMETRY                                  
REMARK 290 SYMMETRY OPERATORS FOR SPACE GROUP: P 43 2 2               
REMARK 290                                                            
REMARK 290      SYMOP   SYMMETRY                                      
REMARK 290     NNNMMM   OPERATOR                                      
REMARK 290       1555   X,Y,Z                                         
REMARK 290       2555   -X,-Y,1/2+Z                                   
REMARK 290       3555   -Y,X,3/4+Z                                    
REMARK 290       4555   Y,-X,1/4+Z                                    
REMARK 290       5555   -X,Y,-Z                                       
REMARK 290       6555   X,-Y,1/2-Z                                    
REMARK 290       7555   Y,X,1/4-Z                                     
REMARK 290       8555   -Y,-X,3/4-Z                                   
REMARK 290                                                            
REMARK 290     WHERE NNN -> OPERATOR NUMBER                           
REMARK 290           MMM -> TRANSLATION VECTOR                        
REMARK 290                                                            
REMARK 290 CRYSTALLOGRAPHIC SYMMETRY TRANSFORMATIONS                  
REMARK 290 THE FOLLOWING TRANSFORMATIONS OPERATE ON THE ATOM/HETATM   
REMARK 290 RECORDS IN THIS ENTRY TO PRODUCE CRYSTALLOGRAPHICALLY      
REMARK 290 RELATED MOLECULES.                                         
REMARK 290   SMTRY1   1  1.000000  0.000000  0.000000        0.00000
REMARK 290   SMTRY2   1  0.000000  1.000000  0.000000        0.00000
REMARK 290   SMTRY3   1  0.000000  0.000000  1.000000        0.00000
REMARK 290   SMTRY1   2 -1.000000  0.000000  0.000000        0.00000
REMARK 290   SMTRY2   2  0.000000 -1.000000  0.000000        0.00000
REMARK 290   SMTRY3   2  0.000000  0.000000  1.000000      108.27300
REMARK 290   SMTRY1   3  0.000000 -1.000000  0.000000        0.00000
REMARK 290   SMTRY2   3  1.000000  0.000000  0.000000        0.00000
REMARK 290   SMTRY3   3  0.000000  0.000000  1.000000      162.40950
REMARK 290   SMTRY1   4  0.000000  1.000000  0.000000        0.00000
REMARK 290   SMTRY2   4 -1.000000  0.000000  0.000000        0.00000
REMARK 290   SMTRY3   4  0.000000  0.000000  1.000000       54.13650
REMARK 290   SMTRY1   5 -1.000000  0.000000  0.000000        0.00000
REMARK 290   SMTRY2   5  0.000000  1.000000  0.000000        0.00000
REMARK 290   SMTRY3   5  0.000000  0.000000 -1.000000        0.00000
REMARK 290   SMTRY1   6  1.000000  0.000000  0.000000        0.00000
REMARK 290   SMTRY2   6  0.000000 -1.000000  0.000000        0.00000
REMARK 290   SMTRY3   6  0.000000  0.000000 -1.000000      108.27300
REMARK 290   SMTRY1   7  0.000000  1.000000  0.000000        0.00000
REMARK 290   SMTRY2   7  1.000000  0.000000  0.000000        0.00000
REMARK 290   SMTRY3   7  0.000000  0.000000 -1.000000       54.13650
REMARK 290   SMTRY1   8  0.000000 -1.000000  0.000000        0.00000
REMARK 290   SMTRY2   8 -1.000000  0.000000  0.000000        0.00000
REMARK 290   SMTRY3   8  0.000000  0.000000 -1.000000      162.40950
REMARK 290                                                            
REMARK 290 REMARK: NULL                                               
CRYST1   42.723   42.723  216.546  90.00  90.00  90.00 P 43 2 2                 


$$$$
Zx0819a_ligand
  PyMOL3.0          3D                             0

 11 11  0  0  0  0  0  0  0  0999 V2000
   -9.0190    5.0060  -16.3080 C   0  0  0  0  0  0  0  0  0  0  0  0
   -8.6000    6.1010  -18.7560 N   0  0  0  0  0  0  0  0  0  0  0  0
  -10.8710    5.9480  -17.8440 O   0  0  0  0  0  0  0  0  0  0  0  0
   -9.6580    5.1970  -17.9260 S   0  0  0  0  0  0  0  0  0  0  0  0
   -7.1410    6.0760  -18.5450 C   0  0  0  0  0  0  0  0  0  0  0  0
   -4.4900    6.0080  -19.7270 N   0  0  0  0  0  0  0  0  0  0  0  0
   -9.6850    3.9110  -18.5520 O   0  0  0  0  0  0  0  0  0  0  0  0
   -6.5520    4.7970  -19.1310 C   0  0  0  0  0  0  0  0  0  0  0  0
   -5.0340    4.8150  -19.0470 C   0  0  0  0  0  0  0  0  0  0  0  0
   -4.9920    7.2480  -19.1020 C   0  0  0  0  0  0  0  0  0  0  0  0
   -6.5080    7.3110  -19.1820 C   0  0  0  0  0  0  0  0  0  0  0  0
  2  5  1  0  0  0  0
  3  4  2  0  0  0  0
  1  4  1  0  0  0  0
  2  4  1  0  0  0  0
  4  7  2  0  0  0  0
  5  8  1  0  0  0  0
  5 11  1  0  0  0  0
  6 10  1  0  0  0  0
  8  9  1  0  0  0  0
  6  9  1  0  0  0  0
 10 11  1  0  0  0  0
M  END
>  <pdb_header>
COMPND    XX01ZVNS2B-x0819_B_301_XX01ZVNS2B-x1291+B+301+1


$$$$
Zx0827a
  PyMOL3.0          3D                             0

 15 17  0  0  0  0  0  0  0  0999 V2000
   -6.1050    5.7700  -13.0010 N   0  0  0  0  0  0  0  0  0  0  0  0
   -8.2030    5.1350  -11.7700 C   0  0  0  0  0  0  0  0  0  0  0  0
   -6.7160    5.4900  -11.6770 C   0  0  0  0  0  0  0  0  0  0  0  0
   -6.3830    5.2110  -18.6450 N   0  0  0  0  0  0  0  0  0  0  0  0
   -7.0040    6.5380  -13.8720 C   0  0  0  0  0  0  0  0  0  0  0  0
   -8.2510    5.7180  -14.2410 C   0  0  0  0  0  0  0  0  0  0  0  0
   -8.5500    4.6500  -13.1780 C   0  0  0  0  0  0  0  0  0  0  0  0
   -8.3420    5.1810  -15.6650 C   0  0  0  0  0  0  0  0  0  0  0  0
   -9.5040    4.5350  -16.0720 C   0  0  0  0  0  0  0  0  0  0  0  0
   -9.7010    4.1440  -17.3860 C   0  0  0  0  0  0  0  0  0  0  0  0
   -8.7260    4.3680  -18.3370 C   0  0  0  0  0  0  0  0  0  0  0  0
   -7.5390    4.9660  -17.9390 C   0  0  0  0  0  0  0  0  0  0  0  0
   -5.4520    5.7620  -17.8040 C   0  0  0  0  0  0  0  0  0  0  0  0
   -5.9680    5.8940  -16.5590 C   0  0  0  0  0  0  0  0  0  0  0  0
   -7.3140    5.3880  -16.6110 C   0  0  0  0  0  0  0  0  0  0  0  0
  1  3  1  0  0  0  0
  2  3  1  0  0  0  0
  4 12  4  0  0  0  0
  1  5  1  0  0  0  0
  5  6  1  0  0  0  0
  6  7  1  0  0  0  0
  2  7  1  0  0  0  0
  6  8  1  0  0  0  0
  8  9  4  0  0  0  0
  9 10  4  0  0  0  0
 10 11  4  0  0  0  0
 11 12  4  0  0  0  0
  4 13  4  0  0  0  0
 13 14  4  0  0  0  0
 14 15  4  0  0  0  0
  8 15  4  0  0  0  0
 12 15  4  0  0  0  0
M  END
>  <pdb_header>
HEADER    ----                                    23-FEB-23                     
TITLE     ---                                                                   
EXPDTA    X-RAY DIFFRACTION                                                     
REMARK --------------------- added by autoBUSTER ---------------------------------START
REMARK run at   = Mon Sep  4 13:22:37 BST 2023
REMARK     in   = /dls/labxchem/data/lb32627/lb32627-65/processing/analysis/model_building/XX01ZVNS2B-x0827
REMARK     user = kyf22269
REMARK     cmd  = \
REMARK            /dls_sw/apps/GPhL/BUSTER/20230726/autoBUSTER/bin/linux64/refine \
REMARK            -p \
REMARK            /dls/labxchem/data/lb32627/lb32627-65/processing/analysis/model_building/XX01ZVNS2B-x0827/cootOut/Refi
REMARK            -m \
REMARK            /dls/labxchem/data/lb32627/lb32627-65/processing/analysis/model_building/XX01ZVNS2B-x0827/XX01ZVNS2B-x
REMARK            -l \
REMARK            /dls/labxchem/data/lb32627/lb32627-65/processing/analysis/model_building/XX01ZVNS2B-x0827/Z1509195674.
REMARK            -autoncs -M TLSbasic -d Refine_8
REMARK Files used:
REMARK   PDB              = Refine_8/pdbchk.pdb
REMARK   MTZ              = /dls/labxchem/data/lb32627/lb32627-65/processing/analysis/model_building/XX01ZVNS2B-x0827/XX
REMARK output written to subdirectory = Refine_8
REMARK best refinement for F,SIGF with R/Rfree 0.2140/0.2299
REMARK header records are copied from input PDB file (apart from REMARK 3!)
REMARK --------------------- added by autoBUSTER -----------------------------------END
REMARK --------------------- added by autoBUSTER -------------------------------
REMARK run at   = Thu Aug 10 19:21:18 BST 2023                                  
REMARK     in   = /dls/labxchem/data/lb32627/lb32627-65/processing/analysis/mode
REMARK     user = xau79897                                                      
REMARK     cmd  = \                                                             
REMARK            /dls_sw/apps/GPhL/BUSTER/20230614/autoBUSTER/bin/linux64/refin
REMARK            -p \                                                          
REMARK            /dls/labxchem/data/lb32627/lb32627-65/processing/analysis/mode
REMARK            -m \                                                          
REMARK            /dls/labxchem/data/lb32627/lb32627-65/processing/analysis/mode
REMARK            -l \                                                          
REMARK            /dls/labxchem/data/lb32627/lb32627-65/processing/analysis/mode
REMARK            -autoncs -M TLSbasic -WAT -B user -Gelly gelly.dat \          
REMARK            StopOnGellySanityCheckError=no -d Refine_7                    
REMARK Files used:                                                              
REMARK   PDB              = Refine_7/pdbchk.pdb                                 
REMARK   MTZ              = /dls/labxchem/data/lb32627/lb32627-65/processing/ana
REMARK   Gelly commands       = /dls/labxchem/data/lb32627/lb32627-65/processing
REMARK output written to subdirectory = Refine_7                                
REMARK best refinement for F,SIGF with R/Rfree 0.2140/0.2300                    
REMARK header records are copied from input PDB file (apart from REMARK 3!)     
REMARK --------------------- added by autoBUSTER -------------------------------
REMARK --------------------- added by autoBUSTER -------------------------------
REMARK run at   = Thu Aug 10 13:48:03 BST 2023                                  
REMARK     in   = /dls/labxchem/data/lb32627/lb32627-65/processing/analysis/mode
REMARK     user = kyf22269                                                      
REMARK     cmd  = \                                                             
REMARK            /dls_sw/apps/GPhL/BUSTER/20230614/autoBUSTER/bin/linux64/refin
REMARK            -p \                                                          
REMARK            /dls/labxchem/data/lb32627/lb32627-65/processing/analysis/mode
REMARK            -m \                                                          
REMARK            /dls/labxchem/data/lb32627/lb32627-65/processing/analysis/mode
REMARK            -l \                                                          
REMARK            /dls/labxchem/data/lb32627/lb32627-65/processing/analysis/mode
REMARK            -autoncs -M TLSbasic -d Refine_6                              
REMARK Files used:                                                              
REMARK   PDB              = Refine_6/pdbchk.pdb                                 
REMARK   MTZ              = /dls/labxchem/data/lb32627/lb32627-65/processing/ana
REMARK output written to subdirectory = Refine_6                                
REMARK best refinement for F,SIGF with R/Rfree 0.2216/0.2354                    
REMARK header records are copied from input PDB file (apart from REMARK 3!)     
REMARK --------------------- added by autoBUSTER -------------------------------
REMARK --------------------- added by autoBUSTER -------------------------------
REMARK run at   = Thu Aug 10 10:11:51 BST 2023                                  
REMARK     in   = /dls/labxchem/data/lb32627/lb32627-65/processing/analysis/mode
REMARK     user = kyf22269                                                      
REMARK     cmd  = \                                                             
REMARK            /dls_sw/apps/GPhL/BUSTER/20230614/autoBUSTER/bin/linux64/refin
REMARK            -p \                                                          
REMARK            /dls/labxchem/data/lb32627/lb32627-65/processing/analysis/mode
REMARK            -m \                                                          
REMARK            /dls/labxchem/data/lb32627/lb32627-65/processing/analysis/mode
REMARK            -l \                                                          
REMARK            /dls/labxchem/data/lb32627/lb32627-65/processing/analysis/mode
REMARK            -autoncs -M TLSbasic -d Refine_5                              
REMARK Files used:                                                              
REMARK   PDB              = Refine_5/pdbchk.pdb                                 
REMARK   MTZ              = /dls/labxchem/data/lb32627/lb32627-65/processing/ana
REMARK output written to subdirectory = Refine_5                                
REMARK best refinement for F,SIGF with R/Rfree 0.2216/0.2352                    
REMARK header records are copied from input PDB file (apart from REMARK 3!)     
REMARK --------------------- added by autoBUSTER -------------------------------
REMARK --------------------- added by autoBUSTER -------------------------------
REMARK run at   = Wed Aug  9 11:59:36 BST 2023                                  
REMARK     in   = /dls/labxchem/data/lb32627/lb32627-65/processing/analysis/mode
REMARK     user = kyf22269                                                      
REMARK     cmd  = \                                                             
REMARK            /dls_sw/apps/GPhL/BUSTER/20230614/autoBUSTER/bin/linux64/refin
REMARK            -p \                                                          
REMARK            /dls/labxchem/data/lb32627/lb32627-65/processing/analysis/mode
REMARK            -m \                                                          
REMARK            /dls/labxchem/data/lb32627/lb32627-65/processing/analysis/mode
REMARK            -l \                                                          
REMARK            /dls/labxchem/data/lb32627/lb32627-65/processing/analysis/mode
REMARK            -autoncs -M TLSbasic -d Refine_4                              
REMARK Files used:                                                              
REMARK   PDB              = Refine_4/pdbchk.pdb                                 
REMARK   MTZ              = /dls/labxchem/data/lb32627/lb32627-65/processing/ana
REMARK output written to subdirectory = Refine_4                                
REMARK best refinement for F,SIGF with R/Rfree 0.2251/0.2403                    
REMARK header records are copied from input PDB file (apart from REMARK 3!)     
REMARK --------------------- added by autoBUSTER -------------------------------
REMARK --------------------- added by autoBUSTER -------------------------------
REMARK run at   = Mon Aug  7 20:11:59 BST 2023                                  
REMARK     in   = /dls/labxchem/data/lb32627/lb32627-65/processing/analysis/mode
REMARK     user = xau79897                                                      
REMARK     cmd  = \                                                             
REMARK            /dls_sw/apps/GPhL/BUSTER/20230614/autoBUSTER/bin/linux64/refin
REMARK            -p \                                                          
REMARK            /dls/labxchem/data/lb32627/lb32627-65/processing/analysis/mode
REMARK            -m \                                                          
REMARK            /dls/labxchem/data/lb32627/lb32627-65/processing/analysis/mode
REMARK            -l \                                                          
REMARK            /dls/labxchem/data/lb32627/lb32627-65/processing/analysis/mode
REMARK            -autoncs -M TLSbasic -B user -Gelly gelly.dat \               
REMARK            StopOnGellySanityCheckError=no -d Refine_3                    
REMARK Files used:                                                              
REMARK   PDB              = Refine_3/pdbchk.pdb                                 
REMARK   MTZ              = /dls/labxchem/data/lb32627/lb32627-65/processing/ana
REMARK   Gelly commands       = /dls/labxchem/data/lb32627/lb32627-65/processing
REMARK output written to subdirectory = Refine_3                                
REMARK best refinement for F,SIGF with R/Rfree 0.2305/0.2434                    
REMARK header records are copied from input PDB file (apart from REMARK 3!)     
REMARK --------------------- added by autoBUSTER -------------------------------
REMARK   2                                                            
REMARK   2 RESOLUTION.    1.25 ANGSTROMS.
REMARK   3
REMARK   3 REFINEMENT.
REMARK   3   PROGRAM     : BUSTER 2.10.4 (26-JUL-2023)
REMARK   3   AUTHORS     : BRICOGNE,BLANC,BRANDL,FLENSBURG,KELLER,
REMARK   3               : PACIOREK,ROVERSI,SHARFF,SMART,VONRHEIN,WOMACK;
REMARK   3               : MATTHEWS,TEN EYCK,TRONRUD
REMARK   3
REMARK   3  DATA USED IN REFINEMENT.
REMARK   3   RESOLUTION RANGE HIGH (ANGSTROMS) : 1.250
REMARK   3   RESOLUTION RANGE LOW  (ANGSTROMS) : 18.07
REMARK   3   DATA CUTOFF            (SIGMA(F)) : 0.000
REMARK   3   COMPLETENESS FOR RANGE        (%) : 93.0
REMARK   3   NUMBER OF REFLECTIONS             : 52739
REMARK   3
REMARK   3  FIT TO DATA USED IN REFINEMENT.
REMARK   3   CROSS-VALIDATION METHOD          : THROUGHOUT
REMARK   3   FREE R VALUE TEST SET SELECTION  : RANDOM
REMARK   3   R VALUE     (WORKING + TEST SET) : 0.2148
REMARK   3   R VALUE            (WORKING SET) : 0.2140
REMARK   3   FREE R VALUE                     : 0.2299
REMARK   3   FREE R VALUE TEST SET SIZE   (%) : 5.090
REMARK   3   FREE R VALUE TEST SET COUNT      : 2682
REMARK   3   ESTIMATED ERROR OF FREE R VALUE  : NULL
REMARK   3
REMARK   3  FIT IN THE HIGHEST RESOLUTION BIN.
REMARK   3   TOTAL NUMBER OF BINS USED           : 51
REMARK   3   BIN RESOLUTION RANGE HIGH       (A) : 1.25
REMARK   3   BIN RESOLUTION RANGE LOW        (A) : 1.28
REMARK   3   BIN COMPLETENESS (WORKING+TEST) (%) : 30.76
REMARK   3   REFLECTIONS IN BIN   (WORKING+TEST) : 1055
REMARK   3   BIN R VALUE          (WORKING+TEST) : 0.5192
REMARK   3   REFLECTIONS IN BIN    (WORKING SET) : 1002
REMARK   3   BIN R VALUE           (WORKING SET) : 0.5180
REMARK   3   BIN FREE R VALUE                    : 0.5411
REMARK   3   BIN FREE R VALUE TEST SET SIZE  (%) : 5.02
REMARK   3   BIN FREE R VALUE TEST SET COUNT     : 53
REMARK   3   ESTIMATED ERROR OF BIN FREE R VALUE : NULL
REMARK   3
REMARK   3  NUMBER OF NON-HYDROGEN ATOMS USED IN REFINEMENT.
REMARK   3   PROTEIN ATOMS            : 1476
REMARK   3   NUCLEIC ACID ATOMS       : 0
REMARK   3   HETEROGEN ATOMS          : 23
REMARK   3   SOLVENT ATOMS            : 150
REMARK   3
REMARK   3  B VALUES.
REMARK   3   FROM WILSON PLOT           (A**2) : 21.52
REMARK   3   MEAN B VALUE      (OVERALL, A**2) : 32.50
REMARK   3   OVERALL ANISOTROPIC B VALUE.
REMARK   3    B11 (A**2) : -3.58200
REMARK   3    B22 (A**2) : -3.58200
REMARK   3    B33 (A**2) : 7.16390
REMARK   3    B12 (A**2) : 0.00000
REMARK   3    B13 (A**2) : 0.00000
REMARK   3    B23 (A**2) : 0.00000
REMARK   3
REMARK   3  ESTIMATED COORDINATE ERROR.
REMARK   3   ESD FROM LUZZATI PLOT                    (A) : 0.21
REMARK   3   DPI (BLOW EQ-10) BASED ON R VALUE        (A) : 0.055
REMARK   3   DPI (BLOW EQ-9) BASED ON FREE R VALUE    (A) : 0.055
REMARK   3   DPI (CRUICKSHANK) BASED ON R VALUE       (A) : 0.052
REMARK   3   DPI (CRUICKSHANK) BASED ON FREE R VALUE  (A) : 0.052
REMARK   3
REMARK   3   REFERENCES: BLOW, D. (2002) ACTA CRYST D58, 792-797
REMARK   3               CRUICKSHANK, D.W.J. (1999) ACTA CRYST D55, 583-601
REMARK   3
REMARK   3  CORRELATION COEFFICIENTS.
REMARK   3   CORRELATION COEFFICIENT FO-FC      : 0.953
REMARK   3   CORRELATION COEFFICIENT FO-FC FREE : 0.957
REMARK   3
REMARK   3  X-RAY WEIGHT : 5.75
REMARK   3
REMARK   3  GEOMETRY FUNCTION.                                                  
REMARK   3   RESTRAINT LIBRARIES.                                               
REMARK   3    NUMBER OF LIBRARIES USED :   9                                    
REMARK   3    LIBRARY  1 : protgeo_eh99.dat (V1.6.4.20) 20220523  STANDARD      
REMARK   3                 AMINO ACID DICTIONARY. BONDS AND ANGLES FROM         
REMARK   3                 ENGH AND HUBER EH99. OTHER VALUES BASED ON           
REMARK   3                 PREVIOUS TNT OR TAKEN FROM CCP4. INCLUDES            
REMARK   3                 HYDROGEN ATOMS.                                      
REMARK   3    LIBRARY  2 : exoticaa.dat (V1.3.4.16) 20220523  COLLECTION        
REMARK   3                 OF NON-STANDARD AMINO ACIDS, MAINLY EH91             
REMARK   3                 WITHOUT IDEAL DISTANCE INFO                          
REMARK   3    LIBRARY  3 : nuclgeo.dat (V1.13.4.9) 20221011                     
REMARK   3    LIBRARY  4 : bcorrel.dat (V1.15.10.2) 20190616                    
REMARK   3    LIBRARY  5 : contact.dat (V1.15.12.10) 20191121                   
REMARK   3    LIBRARY  6 : idealdist_contact.dat (V1.3.4.14) 20230724           
REMARK   3                 IDEAL-DISTANCE CONTACT TERM DATA AS USED IN          
REMARK   3                 PROLSQ. VALUES USED HERE ARE BASEd ON DATA           
REMARK   3                 HARVESTING OF PDB AS OF 20190109                     
REMARK   3    LIBRARY  7 : restraints for LIG (unknown) from cif                
REMARK   3                 dictionary Z1509195674.cif; generated by GRADE       
REMARK   3                 1.2.21 (Feb 03 2022) from SMILES                     
REMARK   3                 C1CNCC(C1)c2cccc3[nH]ccc23 using MOGUL               
REMARK   3                 1.8.5(274361), CSD as541be, with quantum             
REMARK   3                 mechanics RM1                                        
REMARK   3    LIBRARY  8 : restraints for DMS (DIMETHYL SULFOXIDE) from         
REMARK   3                 cif dictionary DMS.cif; generated by grade2          
REMARK   3                 version 1.1.0a7 from                                 
REMARK   3                 PDB_chemical_components_definition_file              
REMARK   3                 ftp://ftp.ebi.ac.uk/pub/databases/msd/pdbechem_v     
REMARK   3                 2/D/DMS/DMS.cif using RDKit 2021.03.4                
REMARK   3                 ((DatabaseID PDB-DMS))                               
REMARK   3    LIBRARY  9 : assume.dat (V1.9.4.3) 20221011                       
REMARK   3                                                                      
REMARK   3   NUMBER OF GEOMETRIC FUNCTION TERMS DEFINED : 15                    
REMARK   3   TERM                          COUNT    WEIGHT   FUNCTION.          
REMARK   3    BOND LENGTHS              :   1571 ;   2.00 ;  HARMONIC           
REMARK   3    BOND ANGLES               :   2140 ;   2.00 ;  HARMONIC           
REMARK   3    TORSION ANGLES            :    540 ;   2.00 ;  SINUSOIDAL         
REMARK   3    TRIGONAL CARBON PLANES    :   NULL ;   NULL ;  NULL               
REMARK   3    GENERAL PLANES            :    284 ;   5.00 ;  HARMONIC           
REMARK   3    ISOTROPIC THERMAL FACTORS :   1571 ;  10.00 ;  HARMONIC           
REMARK   3    BAD NON-BONDED CONTACTS   :   NULL ;   NULL ;  NULL               
REMARK   3    IMPROPER TORSIONS         :   NULL ;   NULL ;  NULL               
REMARK   3    PSEUDOROTATION ANGLES     :   NULL ;   NULL ;  NULL               
REMARK   3    CHIRAL IMPROPER TORSION   :    197 ;   5.00 ;  SEMIHARMONIC       
REMARK   3    SUM OF OCCUPANCIES        :   NULL ;   NULL ;  NULL               
REMARK   3    UTILITY DISTANCES         :   NULL ;   NULL ;  NULL               
REMARK   3    UTILITY ANGLES            :   NULL ;   NULL ;  NULL               
REMARK   3    UTILITY TORSION           :   NULL ;   NULL ;  NULL               
REMARK   3    IDEAL-DIST CONTACT TERM   :   1360 ;   4.00 ;  SEMIHARMONIC       
REMARK   3                                                                      
REMARK   3   RMS DEVIATIONS FROM IDEAL VALUES.                                  
REMARK   3   BOND LENGTHS                       (A) : 0.013                     
REMARK   3   BOND ANGLES                  (DEGREES) : 1.18                      
REMARK   3   PEPTIDE OMEGA TORSION ANGLES (DEGREES) : 4.89                      
REMARK   3   OTHER TORSION ANGLES         (DEGREES) : 15.39                     
REMARK   3                                                                      
REMARK   3   SIMILARITY.                                                        
REMARK   3    NCS.                                                              
REMARK   3     NCS METHOD: NONE                                                 
REMARK   3    TARGET RESTRAINTS.                                                
REMARK   3     TARGET REPRESENTATION : NONE                                     
REMARK   3     TARGET STRUCTURE : NULL                                          
REMARK   3                                                                      
REMARK   3  TLS DETAILS.                                                        
REMARK   3   NUMBER OF TLS GROUPS  :            2                               
REMARK   3                                                                      
REMARK   3   TLS GROUP :            1                                           
REMARK   3    SET : { A|* }                                                     
REMARK   3    ORIGIN FOR THE GROUP (A):  -13.7006   -1.6250  -19.4587           
REMARK   3    T TENSOR                                                          
REMARK   3     T11:   -0.0136 T22:   -0.0301                                    
REMARK   3     T33:   -0.0572 T12:    0.0723                                    
REMARK   3     T13:    0.0313 T23:    0.0253                                    
REMARK   3    L TENSOR                                                          
REMARK   3     L11:    1.6357 L22:    1.3342                                    
REMARK   3     L33:    1.4070 L12:   -0.7676                                    
REMARK   3     L13:    0.1956 L23:    0.0939                                    
REMARK   3    S TENSOR                                                          
REMARK   3     S11:    0.1871 S12:    0.1255 S13:    0.0738                     
REMARK   3     S21:   -0.1628 S22:   -0.1188 S23:   -0.0302                     
REMARK   3     S31:    0.0560 S32:    0.1715 S33:   -0.0683                     
REMARK   3                                                                      
REMARK   3   TLS GROUP :            2                                           
REMARK   3    SET : { B|* }                                                     
REMARK   3    ORIGIN FOR THE GROUP (A):  -18.3702    0.9414  -15.6723           
REMARK   3    T TENSOR                                                          
REMARK   3     T11:    0.0328 T22:   -0.0257                                    
REMARK   3     T33:   -0.0031 T12:    0.0597                                    
REMARK   3     T13:    0.0221 T23:    0.0145                                    
REMARK   3    L TENSOR                                                          
REMARK   3     L11:    1.0187 L22:    0.4600                                    
REMARK   3     L33:    1.0116 L12:   -0.3784                                    
REMARK   3     L13:    0.0300 L23:   -0.0458                                    
REMARK   3    S TENSOR                                                          
REMARK   3     S11:    0.1388 S12:    0.0146 S13:    0.0413                     
REMARK   3     S21:   -0.0457 S22:   -0.1137 S23:    0.0171                     
REMARK   3     S31:    0.0459 S32:    0.0440 S33:   -0.0251                     
REMARK   3                                                                      
REMARK   3  REFINEMENT NOTES.                                                   
REMARK   3   NUMBER OF REFINEMENT NOTES :   1                                   
REMARK   3   NOTE   1 : IDEAL-DIST CONTACT TERM CONTACT SETUP. ALL ATOMS        
REMARK   3               HAVE CCP4 ATOM TYPE FROM LIBRARY                       
REMARK   3
REMARK   3  OTHER REFINEMENT REMARKS: NULL
REMARK   3
REMARK 290                                                            
REMARK 290 CRYSTALLOGRAPHIC SYMMETRY                                  
REMARK 290 SYMMETRY OPERATORS FOR SPACE GROUP: P 43 2 2               
REMARK 290                                                            
REMARK 290      SYMOP   SYMMETRY                                      
REMARK 290     NNNMMM   OPERATOR                                      
REMARK 290       1555   X,Y,Z                                         
REMARK 290       2555   -X,-Y,1/2+Z                                   
REMARK 290       3555   -Y,X,3/4+Z                                    
REMARK 290       4555   Y,-X,1/4+Z                                    
REMARK 290       5555   -X,Y,-Z                                       
REMARK 290       6555   X,-Y,1/2-Z                                    
REMARK 290       7555   Y,X,1/4-Z                                     
REMARK 290       8555   -Y,-X,3/4-Z                                   
REMARK 290                                                            
REMARK 290     WHERE NNN -> OPERATOR NUMBER                           
REMARK 290           MMM -> TRANSLATION VECTOR                        
REMARK 290                                                            
REMARK 290 CRYSTALLOGRAPHIC SYMMETRY TRANSFORMATIONS                  
REMARK 290 THE FOLLOWING TRANSFORMATIONS OPERATE ON THE ATOM/HETATM   
REMARK 290 RECORDS IN THIS ENTRY TO PRODUCE CRYSTALLOGRAPHICALLY      
REMARK 290 RELATED MOLECULES.                                         
REMARK 290   SMTRY1   1  1.000000  0.000000  0.000000        0.00000
REMARK 290   SMTRY2   1  0.000000  1.000000  0.000000        0.00000
REMARK 290   SMTRY3   1  0.000000  0.000000  1.000000        0.00000
REMARK 290   SMTRY1   2 -1.000000  0.000000  0.000000        0.00000
REMARK 290   SMTRY2   2  0.000000 -1.000000  0.000000        0.00000
REMARK 290   SMTRY3   2  0.000000  0.000000  1.000000      108.45250
REMARK 290   SMTRY1   3  0.000000 -1.000000  0.000000        0.00000
REMARK 290   SMTRY2   3  1.000000  0.000000  0.000000        0.00000
REMARK 290   SMTRY3   3  0.000000  0.000000  1.000000      162.67875
REMARK 290   SMTRY1   4  0.000000  1.000000  0.000000        0.00000
REMARK 290   SMTRY2   4 -1.000000  0.000000  0.000000        0.00000
REMARK 290   SMTRY3   4  0.000000  0.000000  1.000000       54.22625
REMARK 290   SMTRY1   5 -1.000000  0.000000  0.000000        0.00000
REMARK 290   SMTRY2   5  0.000000  1.000000  0.000000        0.00000
REMARK 290   SMTRY3   5  0.000000  0.000000 -1.000000        0.00000
REMARK 290   SMTRY1   6  1.000000  0.000000  0.000000        0.00000
REMARK 290   SMTRY2   6  0.000000 -1.000000  0.000000        0.00000
REMARK 290   SMTRY3   6  0.000000  0.000000 -1.000000      108.45250
REMARK 290   SMTRY1   7  0.000000  1.000000  0.000000        0.00000
REMARK 290   SMTRY2   7  1.000000  0.000000  0.000000        0.00000
REMARK 290   SMTRY3   7  0.000000  0.000000 -1.000000       54.22625
REMARK 290   SMTRY1   8  0.000000 -1.000000  0.000000        0.00000
REMARK 290   SMTRY2   8 -1.000000  0.000000  0.000000        0.00000
REMARK 290   SMTRY3   8  0.000000  0.000000 -1.000000      162.67875
REMARK 290                                                            
REMARK 290 REMARK: NULL                                               
CRYST1   42.553   42.553  216.905  90.00  90.00  90.00 P 43 2 2                 


$$$$
Zx0827a_ligand
  PyMOL3.0          3D                             0

 15 17  0  0  0  0  0  0  0  0999 V2000
   -5.9680    5.8940  -16.5590 C   0  0  0  0  0  0  0  0  0  0  0  0
   -6.3830    5.2110  -18.6450 N   0  0  0  0  0  0  0  0  0  0  0  0
   -5.4520    5.7620  -17.8040 C   0  0  0  0  0  0  0  0  0  0  0  0
   -6.1050    5.7700  -13.0010 N   0  0  0  0  0  0  0  0  0  0  0  0
   -7.3140    5.3880  -16.6110 C   0  0  0  0  0  0  0  0  0  0  0  0
   -7.5390    4.9660  -17.9390 C   0  0  0  0  0  0  0  0  0  0  0  0
   -8.7260    4.3680  -18.3370 C   0  0  0  0  0  0  0  0  0  0  0  0
   -9.7010    4.1440  -17.3860 C   0  0  0  0  0  0  0  0  0  0  0  0
   -9.5040    4.5350  -16.0720 C   0  0  0  0  0  0  0  0  0  0  0  0
   -8.3420    5.1810  -15.6650 C   0  0  0  0  0  0  0  0  0  0  0  0
   -8.2510    5.7180  -14.2410 C   0  0  0  0  0  0  0  0  0  0  0  0
   -8.5500    4.6500  -13.1780 C   0  0  0  0  0  0  0  0  0  0  0  0
   -8.2030    5.1350  -11.7700 C   0  0  0  0  0  0  0  0  0  0  0  0
   -7.0040    6.5380  -13.8720 C   0  0  0  0  0  0  0  0  0  0  0  0
   -6.7160    5.4900  -11.6770 C   0  0  0  0  0  0  0  0  0  0  0  0
  1  3  4  0  0  0  0
  1  5  4  0  0  0  0
  2  6  4  0  0  0  0
  2  3  4  0  0  0  0
  4 15  1  0  0  0  0
  5  6  4  0  0  0  0
  5 10  4  0  0  0  0
  6  7  4  0  0  0  0
  7  8  4  0  0  0  0
  8  9  4  0  0  0  0
  9 10  4  0  0  0  0
 10 11  1  0  0  0  0
 11 12  1  0  0  0  0
 11 14  1  0  0  0  0
 12 13  1  0  0  0  0
 13 15  1  0  0  0  0
  4 14  1  0  0  0  0
M  END
>  <pdb_header>
COMPND    XX01ZVNS2B-x0827_B_203_XX01ZVNS2B-x1291+B+301+1


$$$$
Zx0844a
  PyMOL3.0          3D                             0

 12 13  0  0  0  0  0  0  0  0999 V2000
  -11.2350    4.4970  -17.8660 N   0  0  0  0  0  0  0  0  0  0  0  0
  -10.2150    4.3140  -18.3290 C   0  0  0  0  0  0  0  0  0  0  0  0
   -8.9460    4.0450  -18.9980 C   0  0  0  0  0  0  0  0  0  0  0  0
   -7.7200    5.2610  -17.2430 N   0  0  0  0  0  0  0  0  0  0  0  0
   -7.7790    4.7840  -18.4270 C   0  0  0  0  0  0  0  0  0  0  0  0
   -6.6470    4.9790  -19.1480 N   0  0  0  0  0  0  0  0  0  0  0  0
   -6.4250    5.9500  -17.0420 C   0  0  0  0  0  0  0  0  0  0  0  0
   -5.7450    5.2550  -15.8590 C   0  0  0  0  0  0  0  0  0  0  0  0
   -4.2220    5.3460  -15.9440 C   0  0  0  0  0  0  0  0  0  0  0  0
   -3.7200    4.9730  -17.3350 C   0  0  0  0  0  0  0  0  0  0  0  0
   -4.2670    5.9300  -18.3970 C   0  0  0  0  0  0  0  0  0  0  0  0
   -5.7970    5.9430  -18.4610 C   0  0  0  0  0  0  0  0  0  0  0  0
  1  2  3  0  0  0  0
  2  3  1  0  0  0  0
  3  5  1  0  0  0  0
  4  5  1  0  0  0  0
  5  6  1  0  0  0  0
  6 12  1  0  0  0  0
  4  7  1  0  0  0  0
  7  8  1  0  0  0  0
  8  9  1  0  0  0  0
  9 10  1  0  0  0  0
 10 11  1  0  0  0  0
  7 12  1  0  0  0  0
 11 12  1  0  0  0  0
M  END
>  <pdb_header>
HEADER    ----                                    18-MAY-23                     
TITLE     ---                                                                   
EXPDTA    X-RAY DIFFRACTION                                                     
REMARK --------------------- added by autoBUSTER ---------------------------------START
REMARK run at   = Thu Aug 10 10:12:59 BST 2023
REMARK     in   = /dls/labxchem/data/lb32627/lb32627-65/processing/analysis/model_building/XX01ZVNS2B-x0844
REMARK     user = kyf22269
REMARK     cmd  = \
REMARK            /dls_sw/apps/GPhL/BUSTER/20230614/autoBUSTER/bin/linux64/refine \
REMARK            -p \
REMARK            /dls/labxchem/data/lb32627/lb32627-65/processing/analysis/model_building/XX01ZVNS2B-x0844/cootOut/Refi
REMARK            -m \
REMARK            /dls/labxchem/data/lb32627/lb32627-65/processing/analysis/model_building/XX01ZVNS2B-x0844/XX01ZVNS2B-x
REMARK            -l \
REMARK            /dls/labxchem/data/lb32627/lb32627-65/processing/analysis/model_building/XX01ZVNS2B-x0844/Z1575274523.
REMARK            -autoncs -M TLSbasic -d Refine_9
REMARK Files used:
REMARK   PDB              = Refine_9/pdbchk.pdb
REMARK   MTZ              = /dls/labxchem/data/lb32627/lb32627-65/processing/analysis/model_building/XX01ZVNS2B-x0844/XX
REMARK output written to subdirectory = Refine_9
REMARK best refinement for F,SIGF with R/Rfree 0.2197/0.2485
REMARK header records are copied from input PDB file (apart from REMARK 3!)
REMARK --------------------- added by autoBUSTER -----------------------------------END
REMARK --------------------- added by autoBUSTER -------------------------------
REMARK run at   = Wed Aug  9 12:45:23 BST 2023                                  
REMARK     in   = /dls/labxchem/data/lb32627/lb32627-65/processing/analysis/mode
REMARK     user = kyf22269                                                      
REMARK     cmd  = \                                                             
REMARK            /dls_sw/apps/GPhL/BUSTER/20230614/autoBUSTER/bin/linux64/refin
REMARK            -p \                                                          
REMARK            /dls/labxchem/data/lb32627/lb32627-65/processing/analysis/mode
REMARK            -m \                                                          
REMARK            /dls/labxchem/data/lb32627/lb32627-65/processing/analysis/mode
REMARK            -l \                                                          
REMARK            /dls/labxchem/data/lb32627/lb32627-65/processing/analysis/mode
REMARK            -autoncs -M TLSbasic -d Refine_8                              
REMARK Files used:                                                              
REMARK   PDB              = Refine_8/pdbchk.pdb                                 
REMARK   MTZ              = /dls/labxchem/data/lb32627/lb32627-65/processing/ana
REMARK output written to subdirectory = Refine_8                                
REMARK best refinement for F,SIGF with R/Rfree 0.2194/0.2494                    
REMARK header records are copied from input PDB file (apart from REMARK 3!)     
REMARK --------------------- added by autoBUSTER -------------------------------
REMARK --------------------- added by autoBUSTER -------------------------------
REMARK run at   = Fri Aug  4 09:29:38 BST 2023                                  
REMARK     in   = /dls/labxchem/data/lb32627/lb32627-65/processing/analysis/mode
REMARK     user = kyf22269                                                      
REMARK     cmd  = \                                                             
REMARK            /dls_sw/apps/GPhL/BUSTER/20230614/autoBUSTER/bin/linux64/refin
REMARK            -p \                                                          
REMARK            /dls/labxchem/data/lb32627/lb32627-65/processing/analysis/mode
REMARK            -m \                                                          
REMARK            /dls/labxchem/data/lb32627/lb32627-65/processing/analysis/mode
REMARK            -l \                                                          
REMARK            /dls/labxchem/data/lb32627/lb32627-65/processing/analysis/mode
REMARK            -autoncs -M TLSbasic -d Refine_7                              
REMARK Files used:                                                              
REMARK   PDB              = Refine_7/pdbchk.pdb                                 
REMARK   MTZ              = /dls/labxchem/data/lb32627/lb32627-65/processing/ana
REMARK output written to subdirectory = Refine_7                                
REMARK best refinement for F,SIGF with R/Rfree 0.2172/0.2475                    
REMARK header records are copied from input PDB file (apart from REMARK 3!)     
REMARK --------------------- added by autoBUSTER -------------------------------
REMARK --------------------- added by autoBUSTER -------------------------------
REMARK run at   = Wed Aug  2 09:57:20 BST 2023                                  
REMARK     in   = /dls/labxchem/data/lb32627/lb32627-65/processing/analysis/mode
REMARK     user = kyf22269                                                      
REMARK     cmd  = \                                                             
REMARK            /dls_sw/apps/GPhL/BUSTER/20230614/autoBUSTER/bin/linux64/refin
REMARK            -p \                                                          
REMARK            /dls/labxchem/data/lb32627/lb32627-65/processing/analysis/mode
REMARK            -m \                                                          
REMARK            /dls/labxchem/data/lb32627/lb32627-65/processing/analysis/mode
REMARK            -l \                                                          
REMARK            /dls/labxchem/data/lb32627/lb32627-65/processing/analysis/mode
REMARK            -autoncs -M TLSbasic -d Refine_6                              
REMARK Files used:                                                              
REMARK   PDB              = Refine_6/pdbchk.pdb                                 
REMARK   MTZ              = /dls/labxchem/data/lb32627/lb32627-65/processing/ana
REMARK output written to subdirectory = Refine_6                                
REMARK best refinement for F,SIGF with R/Rfree 0.2203/0.2494                    
REMARK header records are copied from input PDB file (apart from REMARK 3!)     
REMARK --------------------- added by autoBUSTER -------------------------------
REMARK --------------------- added by autoBUSTER -------------------------------
REMARK run at   = Tue May 30 14:46:51 BST 2023                                  
REMARK     in   = /dls/labxchem/data/lb32627/lb32627-65/processing/analysis/mode
REMARK     user = xau79897                                                      
REMARK     cmd  = \                                                             
REMARK            /dls_sw/apps/GPhL/BUSTER/20230217/autoBUSTER/bin/linux64/refin
REMARK            -p \                                                          
REMARK            /dls/labxchem/data/lb32627/lb32627-65/processing/analysis/mode
REMARK            -m \                                                          
REMARK            /dls/labxchem/data/lb32627/lb32627-65/processing/analysis/mode
REMARK            -l \                                                          
REMARK            /dls/labxchem/data/lb32627/lb32627-65/processing/analysis/mode
REMARK            -autoncs -M TLSbasic -WAT -B user -Gelly gelly.dat \          
REMARK            StopOnGellySanityCheckError=no -d Refine_5                    
REMARK Files used:                                                              
REMARK   PDB              = Refine_5/pdbchk.pdb                                 
REMARK   MTZ              = /dls/labxchem/data/lb32627/lb32627-65/processing/ana
REMARK   Gelly commands       = /dls/labxchem/data/lb32627/lb32627-65/processing
REMARK output written to subdirectory = Refine_5                                
REMARK best refinement for F,SIGF with R/Rfree 0.2234/0.2559                    
REMARK header records are copied from input PDB file (apart from REMARK 3!)     
REMARK --------------------- added by autoBUSTER -------------------------------
REMARK --------------------- added by autoBUSTER -------------------------------
REMARK run at   = Tue May 23 17:15:47 BST 2023                                  
REMARK     in   = /dls/labxchem/data/lb32627/lb32627-65/processing/analysis/mode
REMARK     user = xau79897                                                      
REMARK     cmd  = \                                                             
REMARK            /dls_sw/apps/GPhL/BUSTER/20230217/autoBUSTER/bin/linux64/refin
REMARK            -p \                                                          
REMARK            /dls/labxchem/data/lb32627/lb32627-65/processing/analysis/mode
REMARK            -m \                                                          
REMARK            /dls/labxchem/data/lb32627/lb32627-65/processing/analysis/mode
REMARK            -l \                                                          
REMARK            /dls/labxchem/data/lb32627/lb32627-65/processing/analysis/mode
REMARK            -autoncs -M TLSbasic -d Refine_4                              
REMARK Files used:                                                              
REMARK   PDB              = Refine_4/pdbchk.pdb                                 
REMARK   MTZ              = /dls/labxchem/data/lb32627/lb32627-65/processing/ana
REMARK output written to subdirectory = Refine_4                                
REMARK best refinement for F,SIGF with R/Rfree 0.2305/0.2602                    
REMARK header records are copied from input PDB file (apart from REMARK 3!)     
REMARK --------------------- added by autoBUSTER -------------------------------
REMARK   2                                                            
REMARK   2 RESOLUTION.    1.42 ANGSTROMS.
REMARK   3
REMARK   3 REFINEMENT.
REMARK   3   PROGRAM     : BUSTER 2.10.4 (14-JUN-2023)
REMARK   3   AUTHORS     : BRICOGNE,BLANC,BRANDL,FLENSBURG,KELLER,
REMARK   3               : PACIOREK,ROVERSI,SHARFF,SMART,VONRHEIN,WOMACK;
REMARK   3               : MATTHEWS,TEN EYCK,TRONRUD
REMARK   3
REMARK   3  DATA USED IN REFINEMENT.
REMARK   3   RESOLUTION RANGE HIGH (ANGSTROMS) : 1.419
REMARK   3   RESOLUTION RANGE LOW  (ANGSTROMS) : 15.22
REMARK   3   DATA CUTOFF            (SIGMA(F)) : 0.000
REMARK   3   COMPLETENESS FOR RANGE        (%) : 89.2
REMARK   3   NUMBER OF REFLECTIONS             : 35111
REMARK   3
REMARK   3  FIT TO DATA USED IN REFINEMENT.
REMARK   3   CROSS-VALIDATION METHOD          : THROUGHOUT
REMARK   3   FREE R VALUE TEST SET SELECTION  : RANDOM
REMARK   3   R VALUE     (WORKING + TEST SET) : 0.2211
REMARK   3   R VALUE            (WORKING SET) : 0.2197
REMARK   3   FREE R VALUE                     : 0.2485
REMARK   3   FREE R VALUE TEST SET SIZE   (%) : 5.070
REMARK   3   FREE R VALUE TEST SET COUNT      : 1780
REMARK   3   ESTIMATED ERROR OF FREE R VALUE  : NULL
REMARK   3
REMARK   3  FIT IN THE HIGHEST RESOLUTION BIN.
REMARK   3   TOTAL NUMBER OF BINS USED           : 51
REMARK   3   BIN RESOLUTION RANGE HIGH       (A) : 1.42
REMARK   3   BIN RESOLUTION RANGE LOW        (A) : 1.48
REMARK   3   BIN COMPLETENESS (WORKING+TEST) (%) : 14.87
REMARK   3   REFLECTIONS IN BIN   (WORKING+TEST) : 703
REMARK   3   BIN R VALUE          (WORKING+TEST) : 0.6150
REMARK   3   REFLECTIONS IN BIN    (WORKING SET) : 658
REMARK   3   BIN R VALUE           (WORKING SET) : 0.6189
REMARK   3   BIN FREE R VALUE                    : 0.5634
REMARK   3   BIN FREE R VALUE TEST SET SIZE  (%) : 6.40
REMARK   3   BIN FREE R VALUE TEST SET COUNT     : 45
REMARK   3   ESTIMATED ERROR OF BIN FREE R VALUE : NULL
REMARK   3
REMARK   3  NUMBER OF NON-HYDROGEN ATOMS USED IN REFINEMENT.
REMARK   3   PROTEIN ATOMS            : 1453
REMARK   3   NUCLEIC ACID ATOMS       : 0
REMARK   3   HETEROGEN ATOMS          : 24
REMARK   3   SOLVENT ATOMS            : 139
REMARK   3
REMARK   3  B VALUES.
REMARK   3   FROM WILSON PLOT           (A**2) : 30.97
REMARK   3   MEAN B VALUE      (OVERALL, A**2) : 49.37
REMARK   3   OVERALL ANISOTROPIC B VALUE.
REMARK   3    B11 (A**2) : -5.65190
REMARK   3    B22 (A**2) : -5.65190
REMARK   3    B33 (A**2) : 11.30390
REMARK   3    B12 (A**2) : 0.00000
REMARK   3    B13 (A**2) : 0.00000
REMARK   3    B23 (A**2) : 0.00000
REMARK   3
REMARK   3  ESTIMATED COORDINATE ERROR.
REMARK   3   ESD FROM LUZZATI PLOT                    (A) : 0.32
REMARK   3   DPI (BLOW EQ-10) BASED ON R VALUE        (A) : 0.084
REMARK   3   DPI (BLOW EQ-9) BASED ON FREE R VALUE    (A) : 0.084
REMARK   3   DPI (CRUICKSHANK) BASED ON R VALUE       (A) : 0.079
REMARK   3   DPI (CRUICKSHANK) BASED ON FREE R VALUE  (A) : 0.080
REMARK   3
REMARK   3   REFERENCES: BLOW, D. (2002) ACTA CRYST D58, 792-797
REMARK   3               CRUICKSHANK, D.W.J. (1999) ACTA CRYST D55, 583-601
REMARK   3
REMARK   3  CORRELATION COEFFICIENTS.
REMARK   3   CORRELATION COEFFICIENT FO-FC      : 0.955
REMARK   3   CORRELATION COEFFICIENT FO-FC FREE : 0.945
REMARK   3
REMARK   3  X-RAY WEIGHT : 6.12
REMARK   3
REMARK   3  GEOMETRY FUNCTION.                                                  
REMARK   3   RESTRAINT LIBRARIES.                                               
REMARK   3    NUMBER OF LIBRARIES USED :   9                                    
REMARK   3    LIBRARY  1 : protgeo_eh99.dat (V1.6.4.20) 20220523  STANDARD      
REMARK   3                 AMINO ACID DICTIONARY. BONDS AND ANGLES FROM         
REMARK   3                 ENGH AND HUBER EH99. OTHER VALUES BASED ON           
REMARK   3                 PREVIOUS TNT OR TAKEN FROM CCP4. INCLUDES            
REMARK   3                 HYDROGEN ATOMS.                                      
REMARK   3    LIBRARY  2 : exoticaa.dat (V1.3.4.16) 20220523  COLLECTION        
REMARK   3                 OF NON-STANDARD AMINO ACIDS, MAINLY EH91             
REMARK   3                 WITHOUT IDEAL DISTANCE INFO                          
REMARK   3    LIBRARY  3 : nuclgeo.dat (V1.13.4.9) 20221011                     
REMARK   3    LIBRARY  4 : bcorrel.dat (V1.15.10.2) 20190616                    
REMARK   3    LIBRARY  5 : contact.dat (V1.15.12.10) 20191121                   
REMARK   3    LIBRARY  6 : idealdist_contact.dat (V1.3.4.13) 20220125           
REMARK   3                 IDEAL-DISTANCE CONTACT TERM DATA AS USED IN          
REMARK   3                 PROLSQ. VALUES USED HERE ARE BASED ON DATA           
REMARK   3                 HARVESTING OF PDB AS OF 20190109.                    
REMARK   3    LIBRARY  7 : restraints for LIG (unknown) from cif                
REMARK   3                 dictionary Z1575274523.cif; generated by GRADE       
REMARK   3                 1.2.21 (Feb 03 2022) from SMILES N                   
REMARK   3    LIBRARY  8 : restraints for DMS (DIMETHYL SULFOXIDE) from         
REMARK   3                 cif dictionary DMS.cif; generated by grade2          
REMARK   3                 version 1.1.0a7 from                                 
REMARK   3                 PDB_chemical_components_definition_file              
REMARK   3                 ftp://ftp.ebi.ac.uk/pub/databases/msd/pdbechem_v     
REMARK   3                 2/D/DMS/DMS.cif using RDKit 2021.03.4                
REMARK   3                 ((DatabaseID PDB-DMS))                               
REMARK   3    LIBRARY  9 : assume.dat (V1.9.4.3) 20221011                       
REMARK   3                                                                      
REMARK   3   NUMBER OF GEOMETRIC FUNCTION TERMS DEFINED : 15                    
REMARK   3   TERM                          COUNT    WEIGHT   FUNCTION.          
REMARK   3    BOND LENGTHS              :   1590 ;   2.00 ;  HARMONIC           
REMARK   3    BOND ANGLES               :   2174 ;   2.00 ;  HARMONIC           
REMARK   3    TORSION ANGLES            :    546 ;   2.00 ;  SINUSOIDAL         
REMARK   3    TRIGONAL CARBON PLANES    :   NULL ;   NULL ;  NULL               
REMARK   3    GENERAL PLANES            :    276 ;   5.00 ;  HARMONIC           
REMARK   3    ISOTROPIC THERMAL FACTORS :   1590 ;  10.00 ;  HARMONIC           
REMARK   3    BAD NON-BONDED CONTACTS   :   NULL ;   NULL ;  NULL               
REMARK   3    IMPROPER TORSIONS         :   NULL ;   NULL ;  NULL               
REMARK   3    PSEUDOROTATION ANGLES     :   NULL ;   NULL ;  NULL               
REMARK   3    CHIRAL IMPROPER TORSION   :    202 ;   5.00 ;  SEMIHARMONIC       
REMARK   3    SUM OF OCCUPANCIES        :   NULL ;   NULL ;  NULL               
REMARK   3    UTILITY DISTANCES         :   NULL ;   NULL ;  NULL               
REMARK   3    UTILITY ANGLES            :   NULL ;   NULL ;  NULL               
REMARK   3    UTILITY TORSION           :   NULL ;   NULL ;  NULL               
REMARK   3    IDEAL-DIST CONTACT TERM   :   1358 ;   4.00 ;  SEMIHARMONIC       
REMARK   3                                                                      
REMARK   3   RMS DEVIATIONS FROM IDEAL VALUES.                                  
REMARK   3   BOND LENGTHS                       (A) : 0.011                     
REMARK   3   BOND ANGLES                  (DEGREES) : 1.08                      
REMARK   3   PEPTIDE OMEGA TORSION ANGLES (DEGREES) : 4.10                      
REMARK   3   OTHER TORSION ANGLES         (DEGREES) : 15.47                     
REMARK   3                                                                      
REMARK   3   SIMILARITY.                                                        
REMARK   3    NCS.                                                              
REMARK   3     NCS METHOD: NONE                                                 
REMARK   3    TARGET RESTRAINTS.                                                
REMARK   3     TARGET REPRESENTATION : NONE                                     
REMARK   3     TARGET STRUCTURE : NULL                                          
REMARK   3                                                                      
REMARK   3  TLS DETAILS.                                                        
REMARK   3   NUMBER OF TLS GROUPS  :            2                               
REMARK   3                                                                      
REMARK   3   TLS GROUP :            1                                           
REMARK   3    SET : { A|* }                                                     
REMARK   3    ORIGIN FOR THE GROUP (A):  -15.3917   -0.9374  -20.1588           
REMARK   3    T TENSOR                                                          
REMARK   3     T11:    0.0674 T22:    0.0031                                    
REMARK   3     T33:   -0.1676 T12:    0.2085                                    
REMARK   3     T13:    0.0993 T23:    0.0810                                    
REMARK   3    L TENSOR                                                          
REMARK   3     L11:    2.9492 L22:    3.2259                                    
REMARK   3     L33:    2.9485 L12:   -1.7105                                    
REMARK   3     L13:    0.6171 L23:    0.5282                                    
REMARK   3    S TENSOR                                                          
REMARK   3     S11:    0.4923 S12:    0.4627 S13:    0.2821                     
REMARK   3     S21:   -0.5878 S22:   -0.4634 S23:   -0.2425                     
REMARK   3     S31:   -0.0511 S32:    0.4567 S33:   -0.0289                     
REMARK   3                                                                      
REMARK   3   TLS GROUP :            2                                           
REMARK   3    SET : { B|* }                                                     
REMARK   3    ORIGIN FOR THE GROUP (A):  -18.3900    1.2203  -15.9155           
REMARK   3    T TENSOR                                                          
REMARK   3     T11:    0.1092 T22:    0.0188                                    
REMARK   3     T33:   -0.0211 T12:    0.1640                                    
REMARK   3     T13:    0.0301 T23:    0.0297                                    
REMARK   3    L TENSOR                                                          
REMARK   3     L11:    1.2465 L22:    1.1098                                    
REMARK   3     L33:    1.9286 L12:   -0.8938                                    
REMARK   3     L13:    0.5642 L23:   -0.0602                                    
REMARK   3    S TENSOR                                                          
REMARK   3     S11:    0.3303 S12:    0.1569 S13:    0.1044                     
REMARK   3     S21:   -0.1976 S22:   -0.3240 S23:    0.0344                     
REMARK   3     S31:    0.0686 S32:    0.2008 S33:   -0.0063                     
REMARK   3                                                                      
REMARK   3  REFINEMENT NOTES.                                                   
REMARK   3   NUMBER OF REFINEMENT NOTES :   1                                   
REMARK   3   NOTE   1 : IDEAL-DIST CONTACT TERM CONTACT SETUP. ALL ATOMS        
REMARK   3               HAVE CCP4 ATOM TYPE FROM LIBRARY                       
REMARK   3
REMARK   3  OTHER REFINEMENT REMARKS: NULL
REMARK   3
REMARK 290                                                            
REMARK 290 CRYSTALLOGRAPHIC SYMMETRY                                  
REMARK 290 SYMMETRY OPERATORS FOR SPACE GROUP: P 43 2 2               
REMARK 290                                                            
REMARK 290      SYMOP   SYMMETRY                                      
REMARK 290     NNNMMM   OPERATOR                                      
REMARK 290       1555   X,Y,Z                                         
REMARK 290       2555   -X,-Y,1/2+Z                                   
REMARK 290       3555   -Y,X,3/4+Z                                    
REMARK 290       4555   Y,-X,1/4+Z                                    
REMARK 290       5555   -X,Y,-Z                                       
REMARK 290       6555   X,-Y,1/2-Z                                    
REMARK 290       7555   Y,X,1/4-Z                                     
REMARK 290       8555   -Y,-X,3/4-Z                                   
REMARK 290                                                            
REMARK 290     WHERE NNN -> OPERATOR NUMBER                           
REMARK 290           MMM -> TRANSLATION VECTOR                        
REMARK 290                                                            
REMARK 290 CRYSTALLOGRAPHIC SYMMETRY TRANSFORMATIONS                  
REMARK 290 THE FOLLOWING TRANSFORMATIONS OPERATE ON THE ATOM/HETATM   
REMARK 290 RECORDS IN THIS ENTRY TO PRODUCE CRYSTALLOGRAPHICALLY      
REMARK 290 RELATED MOLECULES.                                         
REMARK 290   SMTRY1   1  1.000000  0.000000  0.000000        0.00000
REMARK 290   SMTRY2   1  0.000000  1.000000  0.000000        0.00000
REMARK 290   SMTRY3   1  0.000000  0.000000  1.000000        0.00000
REMARK 290   SMTRY1   2 -1.000000  0.000000  0.000000        0.00000
REMARK 290   SMTRY2   2  0.000000 -1.000000  0.000000        0.00000
REMARK 290   SMTRY3   2  0.000000  0.000000  1.000000      108.64800
REMARK 290   SMTRY1   3  0.000000 -1.000000  0.000000        0.00000
REMARK 290   SMTRY2   3  1.000000  0.000000  0.000000        0.00000
REMARK 290   SMTRY3   3  0.000000  0.000000  1.000000      162.97200
REMARK 290   SMTRY1   4  0.000000  1.000000  0.000000        0.00000
REMARK 290   SMTRY2   4 -1.000000  0.000000  0.000000        0.00000
REMARK 290   SMTRY3   4  0.000000  0.000000  1.000000       54.32400
REMARK 290   SMTRY1   5 -1.000000  0.000000  0.000000        0.00000
REMARK 290   SMTRY2   5  0.000000  1.000000  0.000000        0.00000
REMARK 290   SMTRY3   5  0.000000  0.000000 -1.000000        0.00000
REMARK 290   SMTRY1   6  1.000000  0.000000  0.000000        0.00000
REMARK 290   SMTRY2   6  0.000000 -1.000000  0.000000        0.00000
REMARK 290   SMTRY3   6  0.000000  0.000000 -1.000000      108.64800
REMARK 290   SMTRY1   7  0.000000  1.000000  0.000000        0.00000
REMARK 290   SMTRY2   7  1.000000  0.000000  0.000000        0.00000
REMARK 290   SMTRY3   7  0.000000  0.000000 -1.000000       54.32400
REMARK 290   SMTRY1   8  0.000000 -1.000000  0.000000        0.00000
REMARK 290   SMTRY2   8 -1.000000  0.000000  0.000000        0.00000
REMARK 290   SMTRY3   8  0.000000  0.000000 -1.000000      162.97200
REMARK 290                                                            
REMARK 290 REMARK: NULL                                               
CRYST1   42.636   42.636  217.296  90.00  90.00  90.00 P 43 2 2                 


$$$$
Zx0844a_ligand
  PyMOL3.0          3D                             0

 12 13  0  0  0  0  0  0  0  0999 V2000
  -10.2150    4.3140  -18.3290 C   0  0  0  0  0  0  0  0  0  0  0  0
  -11.2350    4.4970  -17.8660 N   0  0  0  0  0  0  0  0  0  0  0  0
   -8.9460    4.0450  -18.9980 C   0  0  0  0  0  0  0  0  0  0  0  0
   -6.6470    4.9790  -19.1480 N   0  0  0  0  0  0  0  0  0  0  0  0
   -7.7790    4.7840  -18.4270 C   0  0  0  0  0  0  0  0  0  0  0  0
   -7.7200    5.2610  -17.2430 N   0  0  0  0  0  0  0  0  0  0  0  0
   -5.7970    5.9430  -18.4610 C   0  0  0  0  0  0  0  0  0  0  0  0
   -6.4250    5.9500  -17.0420 C   0  0  0  0  0  0  0  0  0  0  0  0
   -4.2670    5.9300  -18.3970 C   0  0  0  0  0  0  0  0  0  0  0  0
   -3.7200    4.9730  -17.3350 C   0  0  0  0  0  0  0  0  0  0  0  0
   -4.2220    5.3460  -15.9440 C   0  0  0  0  0  0  0  0  0  0  0  0
   -5.7450    5.2550  -15.8590 C   0  0  0  0  0  0  0  0  0  0  0  0
  1  3  1  0  0  0  0
  1  2  3  0  0  0  0
  3  5  1  0  0  0  0
  4  7  1  0  0  0  0
  4  5  1  0  0  0  0
  5  6  1  0  0  0  0
  7  8  1  0  0  0  0
  7  9  1  0  0  0  0
  6  8  1  0  0  0  0
  8 12  1  0  0  0  0
  9 10  1  0  0  0  0
 10 11  1  0  0  0  0
 11 12  1  0  0  0  0
M  END
>  <pdb_header>
COMPND    XX01ZVNS2B-x0844_B_301_XX01ZVNS2B-x1291+B+301+1


$$$$
Zx0846a
  PyMOL3.0          3D                             0

 36 40  0  0  0  0  0  0  0  0999 V2000
  -11.8150   12.0040  -10.3710 N   0  0  0  0  0  0  0  0  0  0  0  0
  -12.3240    9.6490  -12.4470 C   0  0  0  0  0  0  0  0  0  0  0  0
  -13.5050   10.3160  -12.4280 O   0  0  0  0  0  0  0  0  0  0  0  0
  -11.9880    8.8840  -13.5630 C   0  0  0  0  0  0  0  0  0  0  0  0
  -14.1020   12.4250   -9.8780 N   0  0  0  0  0  0  0  0  0  0  0  0
  -10.7650    8.2390  -13.6190 C   0  0  0  0  0  0  0  0  0  0  0  0
  -12.6930   14.1520  -10.0420 N   0  0  0  0  0  0  0  0  0  0  0  0
   -9.8740    8.3580  -12.5730 C   0  0  0  0  0  0  0  0  0  0  0  0
  -10.2100    9.1060  -11.4540 C   0  0  0  0  0  0  0  0  0  0  0  0
  -11.4400    9.7570  -11.3670 C   0  0  0  0  0  0  0  0  0  0  0  0
  -11.8220   10.5630  -10.1430 C   0  0  0  0  0  0  0  0  0  0  0  0
  -12.8480   12.8080  -10.0880 C   0  0  0  0  0  0  0  0  0  0  0  0
  -14.8110   13.6140   -9.6970 C   0  0  0  0  0  0  0  0  0  0  0  0
  -16.1690   13.8410   -9.4780 C   0  0  0  0  0  0  0  0  0  0  0  0
  -16.6150   15.1500   -9.3230 C   0  0  0  0  0  0  0  0  0  0  0  0
  -15.7250   16.2220   -9.3870 C   0  0  0  0  0  0  0  0  0  0  0  0
  -14.3740   16.0060   -9.6310 C   0  0  0  0  0  0  0  0  0  0  0  0
  -13.9380   14.6970   -9.7860 C   0  0  0  0  0  0  0  0  0  0  0  0
   -6.1940    9.9060  -25.8720 N   0  0  0  0  0  0  0  0  0  0  0  0
   -6.0510    8.1320  -23.5810 C   0  0  0  0  0  0  0  0  0  0  0  0
   -6.7340    7.6850  -24.6640 O   0  0  0  0  0  0  0  0  0  0  0  0
   -5.6690    7.2330  -22.5920 C   0  0  0  0  0  0  0  0  0  0  0  0
   -8.4950   10.0880  -26.3930 N   0  0  0  0  0  0  0  0  0  0  0  0
   -4.9500    7.6730  -21.4960 C   0  0  0  0  0  0  0  0  0  0  0  0
   -7.3460    8.3580  -27.2100 N   0  0  0  0  0  0  0  0  0  0  0  0
   -4.6100    8.9990  -21.3830 C   0  0  0  0  0  0  0  0  0  0  0  0
   -4.9930    9.9010  -22.3610 C   0  0  0  0  0  0  0  0  0  0  0  0
   -5.7220    9.4860  -23.4730 C   0  0  0  0  0  0  0  0  0  0  0  0
   -6.1700   10.4690  -24.5290 C   0  0  0  0  0  0  0  0  0  0  0  0
   -7.3140    9.4950  -26.4780 C   0  0  0  0  0  0  0  0  0  0  0  0
   -9.3630    9.2600  -27.1060 C   0  0  0  0  0  0  0  0  0  0  0  0
  -10.7400    9.3380  -27.3030 C   0  0  0  0  0  0  0  0  0  0  0  0
  -11.3720    8.3240  -28.0100 C   0  0  0  0  0  0  0  0  0  0  0  0
  -10.6480    7.2600  -28.5350 C   0  0  0  0  0  0  0  0  0  0  0  0
   -9.2760    7.1710  -28.3450 C   0  0  0  0  0  0  0  0  0  0  0  0
   -8.6530    8.1780  -27.6220 C   0  0  0  0  0  0  0  0  0  0  0  0
  1 12  1  0  0  0  0
  2  4  4  0  0  0  0
  2 10  4  0  0  0  0
  2  3  1  0  0  0  0
  4  6  4  0  0  0  0
  7 18  4  0  0  0  0
  6  8  4  0  0  0  0
  8  9  4  0  0  0  0
  9 10  4  0  0  0  0
 10 11  1  0  0  0  0
  1 11  1  0  0  0  0
  5 12  4  0  0  0  0
  7 12  4  0  0  0  0
  5 13  4  0  0  0  0
 13 14  4  0  0  0  0
 14 15  4  0  0  0  0
 15 16  4  0  0  0  0
 16 17  4  0  0  0  0
 13 18  4  0  0  0  0
 17 18  4  0  0  0  0
 19 30  1  0  0  0  0
 20 22  4  0  0  0  0
 20 28  4  0  0  0  0
 20 21  1  0  0  0  0
 22 24  4  0  0  0  0
 25 36  4  0  0  0  0
 24 26  4  0  0  0  0
 26 27  4  0  0  0  0
 27 28  4  0  0  0  0
 28 29  1  0  0  0  0
 19 29  1  0  0  0  0
 23 30  4  0  0  0  0
 25 30  4  0  0  0  0
 23 31  4  0  0  0  0
 31 32  4  0  0  0  0
 32 33  4  0  0  0  0
 33 34  4  0  0  0  0
 34 35  4  0  0  0  0
 31 36  4  0  0  0  0
 35 36  4  0  0  0  0
M  END
>  <pdb_header>
HEADER    ----                                    18-MAY-23                     
TITLE     ---                                                                   
EXPDTA    X-RAY DIFFRACTION                                                     
REMARK --------------------- added by autoBUSTER ---------------------------------START
REMARK run at   = Fri Sep 29 18:26:48 BST 2023
REMARK     in   = /dls/labxchem/data/lb32627/lb32627-65/processing/analysis/model_building/XX01ZVNS2B-x0846
REMARK     user = kyf22269
REMARK     cmd  = \
REMARK            /dls_sw/apps/GPhL/BUSTER/20230726/autoBUSTER/bin/linux64/refine \
REMARK            -p \
REMARK            /dls/labxchem/data/lb32627/lb32627-65/processing/analysis/model_building/XX01ZVNS2B-x0846/cootOut/Refi
REMARK            -m \
REMARK            /dls/labxchem/data/lb32627/lb32627-65/processing/analysis/model_building/XX01ZVNS2B-x0846/XX01ZVNS2B-x
REMARK            -l \
REMARK            /dls/labxchem/data/lb32627/lb32627-65/processing/analysis/model_building/XX01ZVNS2B-x0846/Z1587220559.
REMARK            -autoncs -M TLSbasic -d Refine_7
REMARK Files used:
REMARK   PDB              = Refine_7/pdbchk.pdb
REMARK   MTZ              = /dls/labxchem/data/lb32627/lb32627-65/processing/analysis/model_building/XX01ZVNS2B-x0846/XX
REMARK output written to subdirectory = Refine_7
REMARK best refinement for F,SIGF with R/Rfree 0.2214/0.2436
REMARK header records are copied from input PDB file (apart from REMARK 3!)
REMARK --------------------- added by autoBUSTER -----------------------------------END
REMARK --------------------- added by autoBUSTER -------------------------------
REMARK run at   = Thu Jun 15 21:10:11 BST 2023                                  
REMARK     in   = /dls/labxchem/data/lb32627/lb32627-65/processing/analysis/mode
REMARK     user = xau79897                                                      
REMARK     cmd  = \                                                             
REMARK            /dls_sw/apps/GPhL/BUSTER/20230614/autoBUSTER/bin/linux64/refin
REMARK            -p \                                                          
REMARK            /dls/labxchem/data/lb32627/lb32627-65/processing/analysis/mode
REMARK            -m \                                                          
REMARK            /dls/labxchem/data/lb32627/lb32627-65/processing/analysis/mode
REMARK            -l \                                                          
REMARK            /dls/labxchem/data/lb32627/lb32627-65/processing/analysis/mode
REMARK            -autoncs -M TLSbasic -WAT StopOnGellySanityCheckError=no -d \ 
REMARK            Refine_6                                                      
REMARK Files used:                                                              
REMARK   PDB              = Refine_6/pdbchk.pdb                                 
REMARK   MTZ              = /dls/labxchem/data/lb32627/lb32627-65/processing/ana
REMARK output written to subdirectory = Refine_6                                
REMARK best refinement for F,SIGF with R/Rfree 0.2240/0.2403                    
REMARK header records are copied from input PDB file (apart from REMARK 3!)     
REMARK --------------------- added by autoBUSTER -------------------------------
REMARK --------------------- added by autoBUSTER -------------------------------
REMARK run at   = Tue May 30 15:00:37 BST 2023                                  
REMARK     in   = /dls/labxchem/data/lb32627/lb32627-65/processing/analysis/mode
REMARK     user = xau79897                                                      
REMARK     cmd  = \                                                             
REMARK            /dls_sw/apps/GPhL/BUSTER/20230217/autoBUSTER/bin/linux64/refin
REMARK            -p \                                                          
REMARK            /dls/labxchem/data/lb32627/lb32627-65/processing/analysis/mode
REMARK            -m \                                                          
REMARK            /dls/labxchem/data/lb32627/lb32627-65/processing/analysis/mode
REMARK            -l \                                                          
REMARK            /dls/labxchem/data/lb32627/lb32627-65/processing/analysis/mode
REMARK            -autoncs -M TLSbasic -WAT -B user -Gelly gelly.dat \          
REMARK            StopOnGellySanityCheckError=no -d Refine_5                    
REMARK Files used:                                                              
REMARK   PDB              = Refine_5/pdbchk.pdb                                 
REMARK   MTZ              = /dls/labxchem/data/lb32627/lb32627-65/processing/ana
REMARK   Gelly commands       = /dls/labxchem/data/lb32627/lb32627-65/processing
REMARK output written to subdirectory = Refine_5                                
REMARK best refinement for F,SIGF with R/Rfree 0.2216/0.2440                    
REMARK header records are copied from input PDB file (apart from REMARK 3!)     
REMARK --------------------- added by autoBUSTER -------------------------------
REMARK --------------------- added by autoBUSTER -------------------------------
REMARK run at   = Tue May 23 17:15:56 BST 2023                                  
REMARK     in   = /dls/labxchem/data/lb32627/lb32627-65/processing/analysis/mode
REMARK     user = xau79897                                                      
REMARK     cmd  = \                                                             
REMARK            /dls_sw/apps/GPhL/BUSTER/20230217/autoBUSTER/bin/linux64/refin
REMARK            -p \                                                          
REMARK            /dls/labxchem/data/lb32627/lb32627-65/processing/analysis/mode
REMARK            -m \                                                          
REMARK            /dls/labxchem/data/lb32627/lb32627-65/processing/analysis/mode
REMARK            -l \                                                          
REMARK            /dls/labxchem/data/lb32627/lb32627-65/processing/analysis/mode
REMARK            -autoncs -M TLSbasic -d Refine_4                              
REMARK Files used:                                                              
REMARK   PDB              = Refine_4/pdbchk.pdb                                 
REMARK   MTZ              = /dls/labxchem/data/lb32627/lb32627-65/processing/ana
REMARK output written to subdirectory = Refine_4                                
REMARK best refinement for F,SIGF with R/Rfree 0.2340/0.2549                    
REMARK header records are copied from input PDB file (apart from REMARK 3!)     
REMARK --------------------- added by autoBUSTER -------------------------------
REMARK   2                                                            
REMARK   2 RESOLUTION.    1.32 ANGSTROMS.
REMARK   3
REMARK   3 REFINEMENT.
REMARK   3   PROGRAM     : BUSTER 2.10.4 (26-JUL-2023)
REMARK   3   AUTHORS     : BRICOGNE,BLANC,BRANDL,FLENSBURG,KELLER,
REMARK   3               : PACIOREK,ROVERSI,SHARFF,SMART,VONRHEIN,WOMACK;
REMARK   3               : MATTHEWS,TEN EYCK,TRONRUD
REMARK   3
REMARK   3  DATA USED IN REFINEMENT.
REMARK   3   RESOLUTION RANGE HIGH (ANGSTROMS) : 1.320
REMARK   3   RESOLUTION RANGE LOW  (ANGSTROMS) : 19.09
REMARK   3   DATA CUTOFF            (SIGMA(F)) : 0.000
REMARK   3   COMPLETENESS FOR RANGE        (%) : 93.2
REMARK   3   NUMBER OF REFLECTIONS             : 45060
REMARK   3
REMARK   3  FIT TO DATA USED IN REFINEMENT.
REMARK   3   CROSS-VALIDATION METHOD          : THROUGHOUT
REMARK   3   FREE R VALUE TEST SET SELECTION  : RANDOM
REMARK   3   R VALUE     (WORKING + TEST SET) : 0.2225
REMARK   3   R VALUE            (WORKING SET) : 0.2214
REMARK   3   FREE R VALUE                     : 0.2436
REMARK   3   FREE R VALUE TEST SET SIZE   (%) : 5.080
REMARK   3   FREE R VALUE TEST SET COUNT      : 2287
REMARK   3   ESTIMATED ERROR OF FREE R VALUE  : NULL
REMARK   3
REMARK   3  FIT IN THE HIGHEST RESOLUTION BIN.
REMARK   3   TOTAL NUMBER OF BINS USED           : 51
REMARK   3   BIN RESOLUTION RANGE HIGH       (A) : 1.32
REMARK   3   BIN RESOLUTION RANGE LOW        (A) : 1.36
REMARK   3   BIN COMPLETENESS (WORKING+TEST) (%) : 23.95
REMARK   3   REFLECTIONS IN BIN   (WORKING+TEST) : 902
REMARK   3   BIN R VALUE          (WORKING+TEST) : 0.4656
REMARK   3   REFLECTIONS IN BIN    (WORKING SET) : 854
REMARK   3   BIN R VALUE           (WORKING SET) : 0.4634
REMARK   3   BIN FREE R VALUE                    : 0.5049
REMARK   3   BIN FREE R VALUE TEST SET SIZE  (%) : 5.32
REMARK   3   BIN FREE R VALUE TEST SET COUNT     : 48
REMARK   3   ESTIMATED ERROR OF BIN FREE R VALUE : NULL
REMARK   3
REMARK   3  NUMBER OF NON-HYDROGEN ATOMS USED IN REFINEMENT.
REMARK   3   PROTEIN ATOMS            : 1476
REMARK   3   NUCLEIC ACID ATOMS       : 0
REMARK   3   HETEROGEN ATOMS          : 52
REMARK   3   SOLVENT ATOMS            : 145
REMARK   3
REMARK   3  B VALUES.
REMARK   3   FROM WILSON PLOT           (A**2) : 24.39
REMARK   3   MEAN B VALUE      (OVERALL, A**2) : 37.13
REMARK   3   OVERALL ANISOTROPIC B VALUE.
REMARK   3    B11 (A**2) : -3.94920
REMARK   3    B22 (A**2) : -3.94920
REMARK   3    B33 (A**2) : 7.89840
REMARK   3    B12 (A**2) : 0.00000
REMARK   3    B13 (A**2) : 0.00000
REMARK   3    B23 (A**2) : 0.00000
REMARK   3
REMARK   3  ESTIMATED COORDINATE ERROR.
REMARK   3   ESD FROM LUZZATI PLOT                    (A) : 0.23
REMARK   3   DPI (BLOW EQ-10) BASED ON R VALUE        (A) : 0.067
REMARK   3   DPI (BLOW EQ-9) BASED ON FREE R VALUE    (A) : 0.067
REMARK   3   DPI (CRUICKSHANK) BASED ON R VALUE       (A) : 0.063
REMARK   3   DPI (CRUICKSHANK) BASED ON FREE R VALUE  (A) : 0.064
REMARK   3
REMARK   3   REFERENCES: BLOW, D. (2002) ACTA CRYST D58, 792-797
REMARK   3               CRUICKSHANK, D.W.J. (1999) ACTA CRYST D55, 583-601
REMARK   3
REMARK   3  CORRELATION COEFFICIENTS.
REMARK   3   CORRELATION COEFFICIENT FO-FC      : 0.952
REMARK   3   CORRELATION COEFFICIENT FO-FC FREE : 0.955
REMARK   3
REMARK   3  X-RAY WEIGHT : 5.97
REMARK   3
REMARK   3  GEOMETRY FUNCTION.                                                  
REMARK   3   RESTRAINT LIBRARIES.                                               
REMARK   3    NUMBER OF LIBRARIES USED :   9                                    
REMARK   3    LIBRARY  1 : protgeo_eh99.dat (V1.6.4.20) 20220523  STANDARD      
REMARK   3                 AMINO ACID DICTIONARY. BONDS AND ANGLES FROM         
REMARK   3                 ENGH AND HUBER EH99. OTHER VALUES BASED ON           
REMARK   3                 PREVIOUS TNT OR TAKEN FROM CCP4. INCLUDES            
REMARK   3                 HYDROGEN ATOMS.                                      
REMARK   3    LIBRARY  2 : exoticaa.dat (V1.3.4.16) 20220523  COLLECTION        
REMARK   3                 OF NON-STANDARD AMINO ACIDS, MAINLY EH91             
REMARK   3                 WITHOUT IDEAL DISTANCE INFO                          
REMARK   3    LIBRARY  3 : nuclgeo.dat (V1.13.4.9) 20221011                     
REMARK   3    LIBRARY  4 : bcorrel.dat (V1.15.10.2) 20190616                    
REMARK   3    LIBRARY  5 : contact.dat (V1.15.12.10) 20191121                   
REMARK   3    LIBRARY  6 : idealdist_contact.dat (V1.3.4.14) 20230724           
REMARK   3                 IDEAL-DISTANCE CONTACT TERM DATA AS USED IN          
REMARK   3                 PROLSQ. VALUES USED HERE ARE BASEd ON DATA           
REMARK   3                 HARVESTING OF PDB AS OF 20190109                     
REMARK   3    LIBRARY  7 : restraints for LIG (unknown) from cif                
REMARK   3                 dictionary Z1587220559.cif; generated by GRADE       
REMARK   3                 1.2.21 (Feb 03 2022) from SMILES                     
REMARK   3                 Oc1ccccc1CNc2nc3ccccc3[nH]2 using MOGUL              
REMARK   3                 1.8.5(274361), CSD as541be, with quantum             
REMARK   3                 mechanics RM1                                        
REMARK   3    LIBRARY  8 : restraints for DMS (DIMETHYL SULFOXIDE) from         
REMARK   3                 cif dictionary DMS.cif; generated by grade2          
REMARK   3                 version 1.1.0a7 from                                 
REMARK   3                 PDB_chemical_components_definition_file              
REMARK   3                 ftp://ftp.ebi.ac.uk/pub/databases/msd/pdbechem_v     
REMARK   3                 2/D/DMS/DMS.cif using RDKit 2021.03.4                
REMARK   3                 ((DatabaseID PDB-DMS))                               
REMARK   3    LIBRARY  9 : assume.dat (V1.9.4.3) 20221011                       
REMARK   3                                                                      
REMARK   3   NUMBER OF GEOMETRIC FUNCTION TERMS DEFINED : 15                    
REMARK   3   TERM                          COUNT    WEIGHT   FUNCTION.          
REMARK   3    BOND LENGTHS              :   1607 ;   2.00 ;  HARMONIC           
REMARK   3    BOND ANGLES               :   2182 ;   2.00 ;  HARMONIC           
REMARK   3    TORSION ANGLES            :    532 ;   2.00 ;  SINUSOIDAL         
REMARK   3    TRIGONAL CARBON PLANES    :   NULL ;   NULL ;  NULL               
REMARK   3    GENERAL PLANES            :    310 ;   5.00 ;  HARMONIC           
REMARK   3    ISOTROPIC THERMAL FACTORS :   1607 ;  10.00 ;  HARMONIC           
REMARK   3    BAD NON-BONDED CONTACTS   :   NULL ;   NULL ;  NULL               
REMARK   3    IMPROPER TORSIONS         :   NULL ;   NULL ;  NULL               
REMARK   3    PSEUDOROTATION ANGLES     :   NULL ;   NULL ;  NULL               
REMARK   3    CHIRAL IMPROPER TORSION   :    192 ;   5.00 ;  SEMIHARMONIC       
REMARK   3    SUM OF OCCUPANCIES        :   NULL ;   NULL ;  NULL               
REMARK   3    UTILITY DISTANCES         :   NULL ;   NULL ;  NULL               
REMARK   3    UTILITY ANGLES            :   NULL ;   NULL ;  NULL               
REMARK   3    UTILITY TORSION           :   NULL ;   NULL ;  NULL               
REMARK   3    IDEAL-DIST CONTACT TERM   :   1391 ;   4.00 ;  SEMIHARMONIC       
REMARK   3                                                                      
REMARK   3   RMS DEVIATIONS FROM IDEAL VALUES.                                  
REMARK   3   BOND LENGTHS                       (A) : 0.012                     
REMARK   3   BOND ANGLES                  (DEGREES) : 1.12                      
REMARK   3   PEPTIDE OMEGA TORSION ANGLES (DEGREES) : 4.47                      
REMARK   3   OTHER TORSION ANGLES         (DEGREES) : 15.36                     
REMARK   3                                                                      
REMARK   3   SIMILARITY.                                                        
REMARK   3    NCS.                                                              
REMARK   3     NCS METHOD: NONE                                                 
REMARK   3    TARGET RESTRAINTS.                                                
REMARK   3     TARGET REPRESENTATION : NONE                                     
REMARK   3     TARGET STRUCTURE : NULL                                          
REMARK   3                                                                      
REMARK   3  TLS DETAILS.                                                        
REMARK   3   NUMBER OF TLS GROUPS  :            2                               
REMARK   3                                                                      
REMARK   3   TLS GROUP :            1                                           
REMARK   3    SET : { A|* }                                                     
REMARK   3    ORIGIN FOR THE GROUP (A):  -13.4625   -1.6089  -19.2872           
REMARK   3    T TENSOR                                                          
REMARK   3     T11:    0.0213 T22:   -0.0015                                    
REMARK   3     T33:   -0.0553 T12:    0.1276                                    
REMARK   3     T13:    0.0375 T23:    0.0368                                    
REMARK   3    L TENSOR                                                          
REMARK   3     L11:    1.4993 L22:    1.5040                                    
REMARK   3     L33:    1.2807 L12:   -1.0058                                    
REMARK   3     L13:    0.2365 L23:    0.1064                                    
REMARK   3    S TENSOR                                                          
REMARK   3     S11:    0.2958 S12:    0.1502 S13:    0.1861                     
REMARK   3     S21:   -0.2369 S22:   -0.2174 S23:   -0.1098                     
REMARK   3     S31:    0.0285 S32:    0.2168 S33:   -0.0784                     
REMARK   3                                                                      
REMARK   3   TLS GROUP :            2                                           
REMARK   3    SET : { B|* }                                                     
REMARK   3    ORIGIN FOR THE GROUP (A):  -18.1907    1.2949  -15.4937           
REMARK   3    T TENSOR                                                          
REMARK   3     T11:    0.0527 T22:   -0.0104                                    
REMARK   3     T33:    0.0011 T12:    0.0986                                    
REMARK   3     T13:    0.0197 T23:    0.0132                                    
REMARK   3    L TENSOR                                                          
REMARK   3     L11:    0.8271 L22:    0.4326                                    
REMARK   3     L33:    1.0024 L12:   -0.5921                                    
REMARK   3     L13:    0.2262 L23:   -0.1403                                    
REMARK   3    S TENSOR                                                          
REMARK   3     S11:    0.2286 S12:    0.0321 S13:    0.0529                     
REMARK   3     S21:   -0.0598 S22:   -0.1902 S23:    0.0444                     
REMARK   3     S31:    0.0318 S32:    0.0973 S33:   -0.0384                     
REMARK   3                                                                      
REMARK   3  REFINEMENT NOTES.                                                   
REMARK   3   NUMBER OF REFINEMENT NOTES :   1                                   
REMARK   3   NOTE   1 : IDEAL-DIST CONTACT TERM CONTACT SETUP. ALL ATOMS        
REMARK   3               HAVE CCP4 ATOM TYPE FROM LIBRARY                       
REMARK   3
REMARK   3  OTHER REFINEMENT REMARKS: NULL
REMARK   3
REMARK 290                                                            
REMARK 290 CRYSTALLOGRAPHIC SYMMETRY                                  
REMARK 290 SYMMETRY OPERATORS FOR SPACE GROUP: P 43 2 2               
REMARK 290                                                            
REMARK 290      SYMOP   SYMMETRY                                      
REMARK 290     NNNMMM   OPERATOR                                      
REMARK 290       1555   X,Y,Z                                         
REMARK 290       2555   -X,-Y,1/2+Z                                   
REMARK 290       3555   -Y,X,3/4+Z                                    
REMARK 290       4555   Y,-X,1/4+Z                                    
REMARK 290       5555   -X,Y,-Z                                       
REMARK 290       6555   X,-Y,1/2-Z                                    
REMARK 290       7555   Y,X,1/4-Z                                     
REMARK 290       8555   -Y,-X,3/4-Z                                   
REMARK 290                                                            
REMARK 290     WHERE NNN -> OPERATOR NUMBER                           
REMARK 290           MMM -> TRANSLATION VECTOR                        
REMARK 290                                                            
REMARK 290 CRYSTALLOGRAPHIC SYMMETRY TRANSFORMATIONS                  
REMARK 290 THE FOLLOWING TRANSFORMATIONS OPERATE ON THE ATOM/HETATM   
REMARK 290 RECORDS IN THIS ENTRY TO PRODUCE CRYSTALLOGRAPHICALLY      
REMARK 290 RELATED MOLECULES.                                         
REMARK 290   SMTRY1   1  1.000000  0.000000  0.000000        0.00000
REMARK 290   SMTRY2   1  0.000000  1.000000  0.000000        0.00000
REMARK 290   SMTRY3   1  0.000000  0.000000  1.000000        0.00000
REMARK 290   SMTRY1   2 -1.000000  0.000000  0.000000        0.00000
REMARK 290   SMTRY2   2  0.000000 -1.000000  0.000000        0.00000
REMARK 290   SMTRY3   2  0.000000  0.000000  1.000000      108.57350
REMARK 290   SMTRY1   3  0.000000 -1.000000  0.000000        0.00000
REMARK 290   SMTRY2   3  1.000000  0.000000  0.000000        0.00000
REMARK 290   SMTRY3   3  0.000000  0.000000  1.000000      162.86025
REMARK 290   SMTRY1   4  0.000000  1.000000  0.000000        0.00000
REMARK 290   SMTRY2   4 -1.000000  0.000000  0.000000        0.00000
REMARK 290   SMTRY3   4  0.000000  0.000000  1.000000       54.28675
REMARK 290   SMTRY1   5 -1.000000  0.000000  0.000000        0.00000
REMARK 290   SMTRY2   5  0.000000  1.000000  0.000000        0.00000
REMARK 290   SMTRY3   5  0.000000  0.000000 -1.000000        0.00000
REMARK 290   SMTRY1   6  1.000000  0.000000  0.000000        0.00000
REMARK 290   SMTRY2   6  0.000000 -1.000000  0.000000        0.00000
REMARK 290   SMTRY3   6  0.000000  0.000000 -1.000000      108.57350
REMARK 290   SMTRY1   7  0.000000  1.000000  0.000000        0.00000
REMARK 290   SMTRY2   7  1.000000  0.000000  0.000000        0.00000
REMARK 290   SMTRY3   7  0.000000  0.000000 -1.000000       54.28675
REMARK 290   SMTRY1   8  0.000000 -1.000000  0.000000        0.00000
REMARK 290   SMTRY2   8 -1.000000  0.000000  0.000000        0.00000
REMARK 290   SMTRY3   8  0.000000  0.000000 -1.000000      162.86025
REMARK 290                                                            
REMARK 290 REMARK: NULL                                               
CRYST1   42.503   42.503  217.147  90.00  90.00  90.00 P 43 2 2                 


$$$$
Zx0846a_ligand
  PyMOL3.0          3D                             0

 18 20  0  0  0  0  0  0  0  0999 V2000
  -12.3240    9.6490  -12.4470 C   0  0  0  0  0  0  0  0  0  0  0  0
  -11.8150   12.0040  -10.3710 N   0  0  0  0  0  0  0  0  0  0  0  0
  -13.5050   10.3160  -12.4280 O   0  0  0  0  0  0  0  0  0  0  0  0
  -11.4400    9.7570  -11.3670 C   0  0  0  0  0  0  0  0  0  0  0  0
  -12.6930   14.1520  -10.0420 N   0  0  0  0  0  0  0  0  0  0  0  0
  -10.2100    9.1060  -11.4540 C   0  0  0  0  0  0  0  0  0  0  0  0
  -14.1020   12.4250   -9.8780 N   0  0  0  0  0  0  0  0  0  0  0  0
   -9.8740    8.3580  -12.5730 C   0  0  0  0  0  0  0  0  0  0  0  0
  -10.7650    8.2390  -13.6190 C   0  0  0  0  0  0  0  0  0  0  0  0
  -11.9880    8.8840  -13.5630 C   0  0  0  0  0  0  0  0  0  0  0  0
  -11.8220   10.5630  -10.1430 C   0  0  0  0  0  0  0  0  0  0  0  0
  -12.8480   12.8080  -10.0880 C   0  0  0  0  0  0  0  0  0  0  0  0
  -13.9380   14.6970   -9.7860 C   0  0  0  0  0  0  0  0  0  0  0  0
  -14.8110   13.6140   -9.6970 C   0  0  0  0  0  0  0  0  0  0  0  0
  -14.3740   16.0060   -9.6310 C   0  0  0  0  0  0  0  0  0  0  0  0
  -15.7250   16.2220   -9.3870 C   0  0  0  0  0  0  0  0  0  0  0  0
  -16.6150   15.1500   -9.3230 C   0  0  0  0  0  0  0  0  0  0  0  0
  -16.1690   13.8410   -9.4780 C   0  0  0  0  0  0  0  0  0  0  0  0
  1  4  4  0  0  0  0
  1 10  4  0  0  0  0
  2 12  1  0  0  0  0
  1  3  1  0  0  0  0
  4  6  4  0  0  0  0
  4 11  1  0  0  0  0
  5 13  4  0  0  0  0
  6  8  4  0  0  0  0
  8  9  4  0  0  0  0
  9 10  4  0  0  0  0
  2 11  1  0  0  0  0
  5 12  4  0  0  0  0
  7 12  4  0  0  0  0
 13 14  4  0  0  0  0
 13 15  4  0  0  0  0
  7 14  4  0  0  0  0
 14 18  4  0  0  0  0
 15 16  4  0  0  0  0
 16 17  4  0  0  0  0
 17 18  4  0  0  0  0
M  END
>  <pdb_header>
COMPND    XX01ZVNS2B-x0846_B_301_XX01ZVNS2B-x0846+B+301+1


$$$$
Zx0846b
  PyMOL3.0          3D                             0

 36 40  0  0  0  0  0  0  0  0999 V2000
  -11.9470   11.5900  -10.2200 N   0  0  0  0  0  0  0  0  0  0  0  0
  -12.3720    9.2550  -12.3370 C   0  0  0  0  0  0  0  0  0  0  0  0
  -13.5690    9.8930  -12.3240 O   0  0  0  0  0  0  0  0  0  0  0  0
  -12.0030    8.5150  -13.4600 C   0  0  0  0  0  0  0  0  0  0  0  0
  -14.2500   11.9490   -9.7520 N   0  0  0  0  0  0  0  0  0  0  0  0
  -10.7640    7.9010  -13.5080 C   0  0  0  0  0  0  0  0  0  0  0  0
  -12.8810   13.7110   -9.8710 N   0  0  0  0  0  0  0  0  0  0  0  0
   -9.8900    8.0250  -12.4490 C   0  0  0  0  0  0  0  0  0  0  0  0
  -10.2590    8.7480  -11.3230 C   0  0  0  0  0  0  0  0  0  0  0  0
  -11.5050    9.3680  -11.2440 C   0  0  0  0  0  0  0  0  0  0  0  0
  -11.9230   10.1460  -10.0130 C   0  0  0  0  0  0  0  0  0  0  0  0
  -13.0030   12.3650   -9.9390 C   0  0  0  0  0  0  0  0  0  0  0  0
  -14.9900   13.1170   -9.5630 C   0  0  0  0  0  0  0  0  0  0  0  0
  -16.3560   13.3090   -9.3590 C   0  0  0  0  0  0  0  0  0  0  0  0
  -16.8350   14.6040   -9.1910 C   0  0  0  0  0  0  0  0  0  0  0  0
  -15.9710   15.6980   -9.2270 C   0  0  0  0  0  0  0  0  0  0  0  0
  -14.6120   15.5180   -9.4550 C   0  0  0  0  0  0  0  0  0  0  0  0
  -14.1420   14.2220   -9.6240 C   0  0  0  0  0  0  0  0  0  0  0  0
   -6.0720    9.8620  -25.6720 N   0  0  0  0  0  0  0  0  0  0  0  0
   -5.9170    8.0580  -23.4060 C   0  0  0  0  0  0  0  0  0  0  0  0
   -6.5740    7.6110  -24.5040 O   0  0  0  0  0  0  0  0  0  0  0  0
   -5.5260    7.1530  -22.4250 C   0  0  0  0  0  0  0  0  0  0  0  0
   -8.3690    9.9970  -26.2210 N   0  0  0  0  0  0  0  0  0  0  0  0
   -4.8330    7.5930  -21.3130 C   0  0  0  0  0  0  0  0  0  0  0  0
   -7.1680    8.3080  -27.0480 N   0  0  0  0  0  0  0  0  0  0  0  0
   -4.5260    8.9250  -21.1750 C   0  0  0  0  0  0  0  0  0  0  0  0
   -4.9180    9.8330  -22.1450 C   0  0  0  0  0  0  0  0  0  0  0  0
   -5.6220    9.4170  -23.2730 C   0  0  0  0  0  0  0  0  0  0  0  0
   -6.0790   10.4050  -24.3200 C   0  0  0  0  0  0  0  0  0  0  0  0
   -7.1730    9.4340  -26.2990 C   0  0  0  0  0  0  0  0  0  0  0  0
   -9.2080    9.1590  -26.9580 C   0  0  0  0  0  0  0  0  0  0  0  0
  -10.5830    9.2070  -27.1730 C   0  0  0  0  0  0  0  0  0  0  0  0
  -11.1810    8.1890  -27.9030 C   0  0  0  0  0  0  0  0  0  0  0  0
  -10.4250    7.1510  -28.4340 C   0  0  0  0  0  0  0  0  0  0  0  0
   -9.0540    7.0920  -28.2270 C   0  0  0  0  0  0  0  0  0  0  0  0
   -8.4650    8.1030  -27.4810 C   0  0  0  0  0  0  0  0  0  0  0  0
  1 12  1  0  0  0  0
  2  4  4  0  0  0  0
  2 10  4  0  0  0  0
  2  3  1  0  0  0  0
  4  6  4  0  0  0  0
  7 18  4  0  0  0  0
  6  8  4  0  0  0  0
  8  9  4  0  0  0  0
  9 10  4  0  0  0  0
 10 11  1  0  0  0  0
  1 11  1  0  0  0  0
  5 12  4  0  0  0  0
  7 12  4  0  0  0  0
  5 13  4  0  0  0  0
 13 14  4  0  0  0  0
 14 15  4  0  0  0  0
 15 16  4  0  0  0  0
 16 17  4  0  0  0  0
 13 18  4  0  0  0  0
 17 18  4  0  0  0  0
 19 30  1  0  0  0  0
 20 22  4  0  0  0  0
 20 28  4  0  0  0  0
 20 21  1  0  0  0  0
 22 24  4  0  0  0  0
 25 36  4  0  0  0  0
 24 26  4  0  0  0  0
 26 27  4  0  0  0  0
 27 28  4  0  0  0  0
 28 29  1  0  0  0  0
 19 29  1  0  0  0  0
 23 30  4  0  0  0  0
 25 30  4  0  0  0  0
 23 31  4  0  0  0  0
 31 32  4  0  0  0  0
 32 33  4  0  0  0  0
 33 34  4  0  0  0  0
 34 35  4  0  0  0  0
 31 36  4  0  0  0  0
 35 36  4  0  0  0  0
M  END
>  <pdb_header>
HEADER    ----                                    18-MAY-23                     
TITLE     ---                                                                   
EXPDTA    X-RAY DIFFRACTION                                                     
REMARK --------------------- added by autoBUSTER ---------------------------------START
REMARK run at   = Fri Sep 29 18:26:48 BST 2023
REMARK     in   = /dls/labxchem/data/lb32627/lb32627-65/processing/analysis/model_building/XX01ZVNS2B-x0846
REMARK     user = kyf22269
REMARK     cmd  = \
REMARK            /dls_sw/apps/GPhL/BUSTER/20230726/autoBUSTER/bin/linux64/refine \
REMARK            -p \
REMARK            /dls/labxchem/data/lb32627/lb32627-65/processing/analysis/model_building/XX01ZVNS2B-x0846/cootOut/Refi
REMARK            -m \
REMARK            /dls/labxchem/data/lb32627/lb32627-65/processing/analysis/model_building/XX01ZVNS2B-x0846/XX01ZVNS2B-x
REMARK            -l \
REMARK            /dls/labxchem/data/lb32627/lb32627-65/processing/analysis/model_building/XX01ZVNS2B-x0846/Z1587220559.
REMARK            -autoncs -M TLSbasic -d Refine_7
REMARK Files used:
REMARK   PDB              = Refine_7/pdbchk.pdb
REMARK   MTZ              = /dls/labxchem/data/lb32627/lb32627-65/processing/analysis/model_building/XX01ZVNS2B-x0846/XX
REMARK output written to subdirectory = Refine_7
REMARK best refinement for F,SIGF with R/Rfree 0.2214/0.2436
REMARK header records are copied from input PDB file (apart from REMARK 3!)
REMARK --------------------- added by autoBUSTER -----------------------------------END
REMARK --------------------- added by autoBUSTER -------------------------------
REMARK run at   = Thu Jun 15 21:10:11 BST 2023                                  
REMARK     in   = /dls/labxchem/data/lb32627/lb32627-65/processing/analysis/mode
REMARK     user = xau79897                                                      
REMARK     cmd  = \                                                             
REMARK            /dls_sw/apps/GPhL/BUSTER/20230614/autoBUSTER/bin/linux64/refin
REMARK            -p \                                                          
REMARK            /dls/labxchem/data/lb32627/lb32627-65/processing/analysis/mode
REMARK            -m \                                                          
REMARK            /dls/labxchem/data/lb32627/lb32627-65/processing/analysis/mode
REMARK            -l \                                                          
REMARK            /dls/labxchem/data/lb32627/lb32627-65/processing/analysis/mode
REMARK            -autoncs -M TLSbasic -WAT StopOnGellySanityCheckError=no -d \ 
REMARK            Refine_6                                                      
REMARK Files used:                                                              
REMARK   PDB              = Refine_6/pdbchk.pdb                                 
REMARK   MTZ              = /dls/labxchem/data/lb32627/lb32627-65/processing/ana
REMARK output written to subdirectory = Refine_6                                
REMARK best refinement for F,SIGF with R/Rfree 0.2240/0.2403                    
REMARK header records are copied from input PDB file (apart from REMARK 3!)     
REMARK --------------------- added by autoBUSTER -------------------------------
REMARK --------------------- added by autoBUSTER -------------------------------
REMARK run at   = Tue May 30 15:00:37 BST 2023                                  
REMARK     in   = /dls/labxchem/data/lb32627/lb32627-65/processing/analysis/mode
REMARK     user = xau79897                                                      
REMARK     cmd  = \                                                             
REMARK            /dls_sw/apps/GPhL/BUSTER/20230217/autoBUSTER/bin/linux64/refin
REMARK            -p \                                                          
REMARK            /dls/labxchem/data/lb32627/lb32627-65/processing/analysis/mode
REMARK            -m \                                                          
REMARK            /dls/labxchem/data/lb32627/lb32627-65/processing/analysis/mode
REMARK            -l \                                                          
REMARK            /dls/labxchem/data/lb32627/lb32627-65/processing/analysis/mode
REMARK            -autoncs -M TLSbasic -WAT -B user -Gelly gelly.dat \          
REMARK            StopOnGellySanityCheckError=no -d Refine_5                    
REMARK Files used:                                                              
REMARK   PDB              = Refine_5/pdbchk.pdb                                 
REMARK   MTZ              = /dls/labxchem/data/lb32627/lb32627-65/processing/ana
REMARK   Gelly commands       = /dls/labxchem/data/lb32627/lb32627-65/processing
REMARK output written to subdirectory = Refine_5                                
REMARK best refinement for F,SIGF with R/Rfree 0.2216/0.2440                    
REMARK header records are copied from input PDB file (apart from REMARK 3!)     
REMARK --------------------- added by autoBUSTER -------------------------------
REMARK --------------------- added by autoBUSTER -------------------------------
REMARK run at   = Tue May 23 17:15:56 BST 2023                                  
REMARK     in   = /dls/labxchem/data/lb32627/lb32627-65/processing/analysis/mode
REMARK     user = xau79897                                                      
REMARK     cmd  = \                                                             
REMARK            /dls_sw/apps/GPhL/BUSTER/20230217/autoBUSTER/bin/linux64/refin
REMARK            -p \                                                          
REMARK            /dls/labxchem/data/lb32627/lb32627-65/processing/analysis/mode
REMARK            -m \                                                          
REMARK            /dls/labxchem/data/lb32627/lb32627-65/processing/analysis/mode
REMARK            -l \                                                          
REMARK            /dls/labxchem/data/lb32627/lb32627-65/processing/analysis/mode
REMARK            -autoncs -M TLSbasic -d Refine_4                              
REMARK Files used:                                                              
REMARK   PDB              = Refine_4/pdbchk.pdb                                 
REMARK   MTZ              = /dls/labxchem/data/lb32627/lb32627-65/processing/ana
REMARK output written to subdirectory = Refine_4                                
REMARK best refinement for F,SIGF with R/Rfree 0.2340/0.2549                    
REMARK header records are copied from input PDB file (apart from REMARK 3!)     
REMARK --------------------- added by autoBUSTER -------------------------------
REMARK   2                                                            
REMARK   2 RESOLUTION.    1.32 ANGSTROMS.
REMARK   3
REMARK   3 REFINEMENT.
REMARK   3   PROGRAM     : BUSTER 2.10.4 (26-JUL-2023)
REMARK   3   AUTHORS     : BRICOGNE,BLANC,BRANDL,FLENSBURG,KELLER,
REMARK   3               : PACIOREK,ROVERSI,SHARFF,SMART,VONRHEIN,WOMACK;
REMARK   3               : MATTHEWS,TEN EYCK,TRONRUD
REMARK   3
REMARK   3  DATA USED IN REFINEMENT.
REMARK   3   RESOLUTION RANGE HIGH (ANGSTROMS) : 1.320
REMARK   3   RESOLUTION RANGE LOW  (ANGSTROMS) : 19.09
REMARK   3   DATA CUTOFF            (SIGMA(F)) : 0.000
REMARK   3   COMPLETENESS FOR RANGE        (%) : 93.2
REMARK   3   NUMBER OF REFLECTIONS             : 45060
REMARK   3
REMARK   3  FIT TO DATA USED IN REFINEMENT.
REMARK   3   CROSS-VALIDATION METHOD          : THROUGHOUT
REMARK   3   FREE R VALUE TEST SET SELECTION  : RANDOM
REMARK   3   R VALUE     (WORKING + TEST SET) : 0.2225
REMARK   3   R VALUE            (WORKING SET) : 0.2214
REMARK   3   FREE R VALUE                     : 0.2436
REMARK   3   FREE R VALUE TEST SET SIZE   (%) : 5.080
REMARK   3   FREE R VALUE TEST SET COUNT      : 2287
REMARK   3   ESTIMATED ERROR OF FREE R VALUE  : NULL
REMARK   3
REMARK   3  FIT IN THE HIGHEST RESOLUTION BIN.
REMARK   3   TOTAL NUMBER OF BINS USED           : 51
REMARK   3   BIN RESOLUTION RANGE HIGH       (A) : 1.32
REMARK   3   BIN RESOLUTION RANGE LOW        (A) : 1.36
REMARK   3   BIN COMPLETENESS (WORKING+TEST) (%) : 23.95
REMARK   3   REFLECTIONS IN BIN   (WORKING+TEST) : 902
REMARK   3   BIN R VALUE          (WORKING+TEST) : 0.4656
REMARK   3   REFLECTIONS IN BIN    (WORKING SET) : 854
REMARK   3   BIN R VALUE           (WORKING SET) : 0.4634
REMARK   3   BIN FREE R VALUE                    : 0.5049
REMARK   3   BIN FREE R VALUE TEST SET SIZE  (%) : 5.32
REMARK   3   BIN FREE R VALUE TEST SET COUNT     : 48
REMARK   3   ESTIMATED ERROR OF BIN FREE R VALUE : NULL
REMARK   3
REMARK   3  NUMBER OF NON-HYDROGEN ATOMS USED IN REFINEMENT.
REMARK   3   PROTEIN ATOMS            : 1476
REMARK   3   NUCLEIC ACID ATOMS       : 0
REMARK   3   HETEROGEN ATOMS          : 52
REMARK   3   SOLVENT ATOMS            : 145
REMARK   3
REMARK   3  B VALUES.
REMARK   3   FROM WILSON PLOT           (A**2) : 24.39
REMARK   3   MEAN B VALUE      (OVERALL, A**2) : 37.13
REMARK   3   OVERALL ANISOTROPIC B VALUE.
REMARK   3    B11 (A**2) : -3.94920
REMARK   3    B22 (A**2) : -3.94920
REMARK   3    B33 (A**2) : 7.89840
REMARK   3    B12 (A**2) : 0.00000
REMARK   3    B13 (A**2) : 0.00000
REMARK   3    B23 (A**2) : 0.00000
REMARK   3
REMARK   3  ESTIMATED COORDINATE ERROR.
REMARK   3   ESD FROM LUZZATI PLOT                    (A) : 0.23
REMARK   3   DPI (BLOW EQ-10) BASED ON R VALUE        (A) : 0.067
REMARK   3   DPI (BLOW EQ-9) BASED ON FREE R VALUE    (A) : 0.067
REMARK   3   DPI (CRUICKSHANK) BASED ON R VALUE       (A) : 0.063
REMARK   3   DPI (CRUICKSHANK) BASED ON FREE R VALUE  (A) : 0.064
REMARK   3
REMARK   3   REFERENCES: BLOW, D. (2002) ACTA CRYST D58, 792-797
REMARK   3               CRUICKSHANK, D.W.J. (1999) ACTA CRYST D55, 583-601
REMARK   3
REMARK   3  CORRELATION COEFFICIENTS.
REMARK   3   CORRELATION COEFFICIENT FO-FC      : 0.952
REMARK   3   CORRELATION COEFFICIENT FO-FC FREE : 0.955
REMARK   3
REMARK   3  X-RAY WEIGHT : 5.97
REMARK   3
REMARK   3  GEOMETRY FUNCTION.                                                  
REMARK   3   RESTRAINT LIBRARIES.                                               
REMARK   3    NUMBER OF LIBRARIES USED :   9                                    
REMARK   3    LIBRARY  1 : protgeo_eh99.dat (V1.6.4.20) 20220523  STANDARD      
REMARK   3                 AMINO ACID DICTIONARY. BONDS AND ANGLES FROM         
REMARK   3                 ENGH AND HUBER EH99. OTHER VALUES BASED ON           
REMARK   3                 PREVIOUS TNT OR TAKEN FROM CCP4. INCLUDES            
REMARK   3                 HYDROGEN ATOMS.                                      
REMARK   3    LIBRARY  2 : exoticaa.dat (V1.3.4.16) 20220523  COLLECTION        
REMARK   3                 OF NON-STANDARD AMINO ACIDS, MAINLY EH91             
REMARK   3                 WITHOUT IDEAL DISTANCE INFO                          
REMARK   3    LIBRARY  3 : nuclgeo.dat (V1.13.4.9) 20221011                     
REMARK   3    LIBRARY  4 : bcorrel.dat (V1.15.10.2) 20190616                    
REMARK   3    LIBRARY  5 : contact.dat (V1.15.12.10) 20191121                   
REMARK   3    LIBRARY  6 : idealdist_contact.dat (V1.3.4.14) 20230724           
REMARK   3                 IDEAL-DISTANCE CONTACT TERM DATA AS USED IN          
REMARK   3                 PROLSQ. VALUES USED HERE ARE BASEd ON DATA           
REMARK   3                 HARVESTING OF PDB AS OF 20190109                     
REMARK   3    LIBRARY  7 : restraints for LIG (unknown) from cif                
REMARK   3                 dictionary Z1587220559.cif; generated by GRADE       
REMARK   3                 1.2.21 (Feb 03 2022) from SMILES                     
REMARK   3                 Oc1ccccc1CNc2nc3ccccc3[nH]2 using MOGUL              
REMARK   3                 1.8.5(274361), CSD as541be, with quantum             
REMARK   3                 mechanics RM1                                        
REMARK   3    LIBRARY  8 : restraints for DMS (DIMETHYL SULFOXIDE) from         
REMARK   3                 cif dictionary DMS.cif; generated by grade2          
REMARK   3                 version 1.1.0a7 from                                 
REMARK   3                 PDB_chemical_components_definition_file              
REMARK   3                 ftp://ftp.ebi.ac.uk/pub/databases/msd/pdbechem_v     
REMARK   3                 2/D/DMS/DMS.cif using RDKit 2021.03.4                
REMARK   3                 ((DatabaseID PDB-DMS))                               
REMARK   3    LIBRARY  9 : assume.dat (V1.9.4.3) 20221011                       
REMARK   3                                                                      
REMARK   3   NUMBER OF GEOMETRIC FUNCTION TERMS DEFINED : 15                    
REMARK   3   TERM                          COUNT    WEIGHT   FUNCTION.          
REMARK   3    BOND LENGTHS              :   1607 ;   2.00 ;  HARMONIC           
REMARK   3    BOND ANGLES               :   2182 ;   2.00 ;  HARMONIC           
REMARK   3    TORSION ANGLES            :    532 ;   2.00 ;  SINUSOIDAL         
REMARK   3    TRIGONAL CARBON PLANES    :   NULL ;   NULL ;  NULL               
REMARK   3    GENERAL PLANES            :    310 ;   5.00 ;  HARMONIC           
REMARK   3    ISOTROPIC THERMAL FACTORS :   1607 ;  10.00 ;  HARMONIC           
REMARK   3    BAD NON-BONDED CONTACTS   :   NULL ;   NULL ;  NULL               
REMARK   3    IMPROPER TORSIONS         :   NULL ;   NULL ;  NULL               
REMARK   3    PSEUDOROTATION ANGLES     :   NULL ;   NULL ;  NULL               
REMARK   3    CHIRAL IMPROPER TORSION   :    192 ;   5.00 ;  SEMIHARMONIC       
REMARK   3    SUM OF OCCUPANCIES        :   NULL ;   NULL ;  NULL               
REMARK   3    UTILITY DISTANCES         :   NULL ;   NULL ;  NULL               
REMARK   3    UTILITY ANGLES            :   NULL ;   NULL ;  NULL               
REMARK   3    UTILITY TORSION           :   NULL ;   NULL ;  NULL               
REMARK   3    IDEAL-DIST CONTACT TERM   :   1391 ;   4.00 ;  SEMIHARMONIC       
REMARK   3                                                                      
REMARK   3   RMS DEVIATIONS FROM IDEAL VALUES.                                  
REMARK   3   BOND LENGTHS                       (A) : 0.012                     
REMARK   3   BOND ANGLES                  (DEGREES) : 1.12                      
REMARK   3   PEPTIDE OMEGA TORSION ANGLES (DEGREES) : 4.47                      
REMARK   3   OTHER TORSION ANGLES         (DEGREES) : 15.36                     
REMARK   3                                                                      
REMARK   3   SIMILARITY.                                                        
REMARK   3    NCS.                                                              
REMARK   3     NCS METHOD: NONE                                                 
REMARK   3    TARGET RESTRAINTS.                                                
REMARK   3     TARGET REPRESENTATION : NONE                                     
REMARK   3     TARGET STRUCTURE : NULL                                          
REMARK   3                                                                      
REMARK   3  TLS DETAILS.                                                        
REMARK   3   NUMBER OF TLS GROUPS  :            2                               
REMARK   3                                                                      
REMARK   3   TLS GROUP :            1                                           
REMARK   3    SET : { A|* }                                                     
REMARK   3    ORIGIN FOR THE GROUP (A):  -13.4625   -1.6089  -19.2872           
REMARK   3    T TENSOR                                                          
REMARK   3     T11:    0.0213 T22:   -0.0015                                    
REMARK   3     T33:   -0.0553 T12:    0.1276                                    
REMARK   3     T13:    0.0375 T23:    0.0368                                    
REMARK   3    L TENSOR                                                          
REMARK   3     L11:    1.4993 L22:    1.5040                                    
REMARK   3     L33:    1.2807 L12:   -1.0058                                    
REMARK   3     L13:    0.2365 L23:    0.1064                                    
REMARK   3    S TENSOR                                                          
REMARK   3     S11:    0.2958 S12:    0.1502 S13:    0.1861                     
REMARK   3     S21:   -0.2369 S22:   -0.2174 S23:   -0.1098                     
REMARK   3     S31:    0.0285 S32:    0.2168 S33:   -0.0784                     
REMARK   3                                                                      
REMARK   3   TLS GROUP :            2                                           
REMARK   3    SET : { B|* }                                                     
REMARK   3    ORIGIN FOR THE GROUP (A):  -18.1907    1.2949  -15.4937           
REMARK   3    T TENSOR                                                          
REMARK   3     T11:    0.0527 T22:   -0.0104                                    
REMARK   3     T33:    0.0011 T12:    0.0986                                    
REMARK   3     T13:    0.0197 T23:    0.0132                                    
REMARK   3    L TENSOR                                                          
REMARK   3     L11:    0.8271 L22:    0.4326                                    
REMARK   3     L33:    1.0024 L12:   -0.5921                                    
REMARK   3     L13:    0.2262 L23:   -0.1403                                    
REMARK   3    S TENSOR                                                          
REMARK   3     S11:    0.2286 S12:    0.0321 S13:    0.0529                     
REMARK   3     S21:   -0.0598 S22:   -0.1902 S23:    0.0444                     
REMARK   3     S31:    0.0318 S32:    0.0973 S33:   -0.0384                     
REMARK   3                                                                      
REMARK   3  REFINEMENT NOTES.                                                   
REMARK   3   NUMBER OF REFINEMENT NOTES :   1                                   
REMARK   3   NOTE   1 : IDEAL-DIST CONTACT TERM CONTACT SETUP. ALL ATOMS        
REMARK   3               HAVE CCP4 ATOM TYPE FROM LIBRARY                       
REMARK   3
REMARK   3  OTHER REFINEMENT REMARKS: NULL
REMARK   3
REMARK 290                                                            
REMARK 290 CRYSTALLOGRAPHIC SYMMETRY                                  
REMARK 290 SYMMETRY OPERATORS FOR SPACE GROUP: P 43 2 2               
REMARK 290                                                            
REMARK 290      SYMOP   SYMMETRY                                      
REMARK 290     NNNMMM   OPERATOR                                      
REMARK 290       1555   X,Y,Z                                         
REMARK 290       2555   -X,-Y,1/2+Z                                   
REMARK 290       3555   -Y,X,3/4+Z                                    
REMARK 290       4555   Y,-X,1/4+Z                                    
REMARK 290       5555   -X,Y,-Z                                       
REMARK 290       6555   X,-Y,1/2-Z                                    
REMARK 290       7555   Y,X,1/4-Z                                     
REMARK 290       8555   -Y,-X,3/4-Z                                   
REMARK 290                                                            
REMARK 290     WHERE NNN -> OPERATOR NUMBER                           
REMARK 290           MMM -> TRANSLATION VECTOR                        
REMARK 290                                                            
REMARK 290 CRYSTALLOGRAPHIC SYMMETRY TRANSFORMATIONS                  
REMARK 290 THE FOLLOWING TRANSFORMATIONS OPERATE ON THE ATOM/HETATM   
REMARK 290 RECORDS IN THIS ENTRY TO PRODUCE CRYSTALLOGRAPHICALLY      
REMARK 290 RELATED MOLECULES.                                         
REMARK 290   SMTRY1   1  1.000000  0.000000  0.000000        0.00000
REMARK 290   SMTRY2   1  0.000000  1.000000  0.000000        0.00000
REMARK 290   SMTRY3   1  0.000000  0.000000  1.000000        0.00000
REMARK 290   SMTRY1   2 -1.000000  0.000000  0.000000        0.00000
REMARK 290   SMTRY2   2  0.000000 -1.000000  0.000000        0.00000
REMARK 290   SMTRY3   2  0.000000  0.000000  1.000000      108.57350
REMARK 290   SMTRY1   3  0.000000 -1.000000  0.000000        0.00000
REMARK 290   SMTRY2   3  1.000000  0.000000  0.000000        0.00000
REMARK 290   SMTRY3   3  0.000000  0.000000  1.000000      162.86025
REMARK 290   SMTRY1   4  0.000000  1.000000  0.000000        0.00000
REMARK 290   SMTRY2   4 -1.000000  0.000000  0.000000        0.00000
REMARK 290   SMTRY3   4  0.000000  0.000000  1.000000       54.28675
REMARK 290   SMTRY1   5 -1.000000  0.000000  0.000000        0.00000
REMARK 290   SMTRY2   5  0.000000  1.000000  0.000000        0.00000
REMARK 290   SMTRY3   5  0.000000  0.000000 -1.000000        0.00000
REMARK 290   SMTRY1   6  1.000000  0.000000  0.000000        0.00000
REMARK 290   SMTRY2   6  0.000000 -1.000000  0.000000        0.00000
REMARK 290   SMTRY3   6  0.000000  0.000000 -1.000000      108.57350
REMARK 290   SMTRY1   7  0.000000  1.000000  0.000000        0.00000
REMARK 290   SMTRY2   7  1.000000  0.000000  0.000000        0.00000
REMARK 290   SMTRY3   7  0.000000  0.000000 -1.000000       54.28675
REMARK 290   SMTRY1   8  0.000000 -1.000000  0.000000        0.00000
REMARK 290   SMTRY2   8 -1.000000  0.000000  0.000000        0.00000
REMARK 290   SMTRY3   8  0.000000  0.000000 -1.000000      162.86025
REMARK 290                                                            
REMARK 290 REMARK: NULL                                               
CRYST1   42.503   42.503  217.147  90.00  90.00  90.00 P 43 2 2                 


$$$$
Zx0846b_ligand
  PyMOL3.0          3D                             0

 18 20  0  0  0  0  0  0  0  0999 V2000
   -5.9170    8.0580  -23.4060 C   0  0  0  0  0  0  0  0  0  0  0  0
   -6.0720    9.8620  -25.6720 N   0  0  0  0  0  0  0  0  0  0  0  0
   -6.5740    7.6110  -24.5040 O   0  0  0  0  0  0  0  0  0  0  0  0
   -5.6220    9.4170  -23.2730 C   0  0  0  0  0  0  0  0  0  0  0  0
   -7.1680    8.3080  -27.0480 N   0  0  0  0  0  0  0  0  0  0  0  0
   -4.9180    9.8330  -22.1450 C   0  0  0  0  0  0  0  0  0  0  0  0
   -8.3690    9.9970  -26.2210 N   0  0  0  0  0  0  0  0  0  0  0  0
   -4.5260    8.9250  -21.1750 C   0  0  0  0  0  0  0  0  0  0  0  0
   -4.8330    7.5930  -21.3130 C   0  0  0  0  0  0  0  0  0  0  0  0
   -5.5260    7.1530  -22.4250 C   0  0  0  0  0  0  0  0  0  0  0  0
   -6.0790   10.4050  -24.3200 C   0  0  0  0  0  0  0  0  0  0  0  0
   -7.1730    9.4340  -26.2990 C   0  0  0  0  0  0  0  0  0  0  0  0
   -8.4650    8.1030  -27.4810 C   0  0  0  0  0  0  0  0  0  0  0  0
   -9.2080    9.1590  -26.9580 C   0  0  0  0  0  0  0  0  0  0  0  0
   -9.0540    7.0920  -28.2270 C   0  0  0  0  0  0  0  0  0  0  0  0
  -10.4250    7.1510  -28.4340 C   0  0  0  0  0  0  0  0  0  0  0  0
  -11.1810    8.1890  -27.9030 C   0  0  0  0  0  0  0  0  0  0  0  0
  -10.5830    9.2070  -27.1730 C   0  0  0  0  0  0  0  0  0  0  0  0
  1  4  4  0  0  0  0
  1 10  4  0  0  0  0
  2 12  1  0  0  0  0
  1  3  1  0  0  0  0
  4  6  4  0  0  0  0
  4 11  1  0  0  0  0
  5 13  4  0  0  0  0
  6  8  4  0  0  0  0
  8  9  4  0  0  0  0
  9 10  4  0  0  0  0
  2 11  1  0  0  0  0
  5 12  4  0  0  0  0
  7 12  4  0  0  0  0
 13 14  4  0  0  0  0
 13 15  4  0  0  0  0
  7 14  4  0  0  0  0
 14 18  4  0  0  0  0
 15 16  4  0  0  0  0
 16 17  4  0  0  0  0
 17 18  4  0  0  0  0
M  END
>  <pdb_header>
COMPND    XX01ZVNS2B-x0846_B_401_XX01ZVNS2B-x1291+B+301+1


$$$$
Zx0875a
  PyMOL3.0          3D                             0

 15 16  0  0  0  0  0  0  0  0999 V2000
   -6.4280    5.7220  -17.3860 N   0  0  0  0  0  0  0  0  0  0  0  0
   -6.0070    6.8230  -18.2460 C   0  0  0  0  0  0  0  0  0  0  0  0
   -3.6020    6.3860  -13.7360 O   0  0  0  0  0  0  0  0  0  0  0  0
   -6.9920    4.1780  -19.9500 Cl  0  0  0  0  0  0  0  0  0  0  0  0
   -5.4790    5.3000  -16.3660 C   0  0  0  0  0  0  0  0  0  0  0  0
   -8.4450    5.2040  -16.4010 N   0  0  0  0  0  0  0  0  0  0  0  0
   -5.5410    6.1440  -15.1000 C   0  0  0  0  0  0  0  0  0  0  0  0
  -10.2150    4.2030  -17.6750 N   0  0  0  0  0  0  0  0  0  0  0  0
   -5.6470    5.3050  -13.8170 C   0  0  0  0  0  0  0  0  0  0  0  0
   -4.6510    5.9460  -12.8900 C   0  0  0  0  0  0  0  0  0  0  0  0
   -4.2410    6.9330  -14.8840 C   0  0  0  0  0  0  0  0  0  0  0  0
   -7.6620    5.1490  -17.4850 C   0  0  0  0  0  0  0  0  0  0  0  0
   -9.6790    4.7220  -16.5730 C   0  0  0  0  0  0  0  0  0  0  0  0
   -9.4000    4.1440  -18.7260 C   0  0  0  0  0  0  0  0  0  0  0  0
   -8.0970    4.6050  -18.6850 C   0  0  0  0  0  0  0  0  0  0  0  0
  1  2  1  0  0  0  0
  1  5  1  0  0  0  0
  3 10  1  0  0  0  0
  4 15  1  0  0  0  0
  5  7  1  0  0  0  0
  6 12  4  0  0  0  0
  7  9  1  0  0  0  0
  7 11  1  0  0  0  0
  8 13  4  0  0  0  0
  9 10  1  0  0  0  0
  3 11  1  0  0  0  0
  1 12  1  0  0  0  0
  6 13  4  0  0  0  0
  8 14  4  0  0  0  0
 12 15  4  0  0  0  0
 14 15  4  0  0  0  0
M  END
>  <pdb_header>
HEADER    ----                                    18-MAY-23                     
TITLE     ---                                                                   
EXPDTA    X-RAY DIFFRACTION                                                     
REMARK --------------------- added by autoBUSTER ---------------------------------START
REMARK run at   = Thu Aug 10 19:24:30 BST 2023
REMARK     in   = /dls/labxchem/data/lb32627/lb32627-65/processing/analysis/model_building/XX01ZVNS2B-x0875
REMARK     user = xau79897
REMARK     cmd  = \
REMARK            /dls_sw/apps/GPhL/BUSTER/20230614/autoBUSTER/bin/linux64/refine \
REMARK            -p \
REMARK            /dls/labxchem/data/lb32627/lb32627-65/processing/analysis/model_building/XX01ZVNS2B-x0875/cootOut/Refi
REMARK            -m \
REMARK            /dls/labxchem/data/lb32627/lb32627-65/processing/analysis/model_building/XX01ZVNS2B-x0875/XX01ZVNS2B-x
REMARK            -l \
REMARK            /dls/labxchem/data/lb32627/lb32627-65/processing/analysis/model_building/XX01ZVNS2B-x0875/Z1787627869.
REMARK            -autoncs -M TLSbasic -WAT -B user -Gelly gelly.dat \
REMARK            StopOnGellySanityCheckError=no -d Refine_5
REMARK Files used:
REMARK   PDB              = Refine_5/pdbchk.pdb
REMARK   MTZ              = /dls/labxchem/data/lb32627/lb32627-65/processing/analysis/model_building/XX01ZVNS2B-x0875/XX
REMARK   Gelly commands       = /dls/labxchem/data/lb32627/lb32627-65/processing/analysis/model_building/XX01ZVNS2B-x087
REMARK output written to subdirectory = Refine_5
REMARK best refinement for F,SIGF with R/Rfree 0.2318/0.2916
REMARK header records are copied from input PDB file (apart from REMARK 3!)
REMARK --------------------- added by autoBUSTER -----------------------------------END
REMARK --------------------- added by autoBUSTER -------------------------------
REMARK run at   = Tue May 30 16:17:06 BST 2023                                  
REMARK     in   = /dls/labxchem/data/lb32627/lb32627-65/processing/analysis/mode
REMARK     user = xau79897                                                      
REMARK     cmd  = \                                                             
REMARK            /dls_sw/apps/GPhL/BUSTER/20230217/autoBUSTER/bin/linux64/refin
REMARK            -p \                                                          
REMARK            /dls/labxchem/data/lb32627/lb32627-65/processing/analysis/mode
REMARK            -m \                                                          
REMARK            /dls/labxchem/data/lb32627/lb32627-65/processing/analysis/mode
REMARK            -l \                                                          
REMARK            /dls/labxchem/data/lb32627/lb32627-65/processing/analysis/mode
REMARK            -autoncs -M TLSbasic -WAT -B user -Gelly gelly.dat \          
REMARK            StopOnGellySanityCheckError=no -d Refine_4                    
REMARK Files used:                                                              
REMARK   PDB              = Refine_4/pdbchk.pdb                                 
REMARK   MTZ              = /dls/labxchem/data/lb32627/lb32627-65/processing/ana
REMARK   Gelly commands       = /dls/labxchem/data/lb32627/lb32627-65/processing
REMARK output written to subdirectory = Refine_4                                
REMARK best refinement for F,SIGF with R/Rfree 0.2388/0.2897                    
REMARK header records are copied from input PDB file (apart from REMARK 3!)     
REMARK --------------------- added by autoBUSTER -------------------------------
REMARK --------------------- added by autoBUSTER -------------------------------
REMARK run at   = Tue May 23 17:16:30 BST 2023                                  
REMARK     in   = /dls/labxchem/data/lb32627/lb32627-65/processing/analysis/mode
REMARK     user = xau79897                                                      
REMARK     cmd  = \                                                             
REMARK            /dls_sw/apps/GPhL/BUSTER/20230217/autoBUSTER/bin/linux64/refin
REMARK            -p \                                                          
REMARK            /dls/labxchem/data/lb32627/lb32627-65/processing/analysis/mode
REMARK            -m \                                                          
REMARK            /dls/labxchem/data/lb32627/lb32627-65/processing/analysis/mode
REMARK            -l \                                                          
REMARK            /dls/labxchem/data/lb32627/lb32627-65/processing/analysis/mode
REMARK            -autoncs -M TLSbasic -d Refine_3                              
REMARK Files used:                                                              
REMARK   PDB              = Refine_3/pdbchk.pdb                                 
REMARK   MTZ              = /dls/labxchem/data/lb32627/lb32627-65/processing/ana
REMARK output written to subdirectory = Refine_3                                
REMARK best refinement for F,SIGF with R/Rfree 0.2426/0.2837                    
REMARK header records are copied from input PDB file (apart from REMARK 3!)     
REMARK --------------------- added by autoBUSTER -------------------------------
REMARK   2                                                            
REMARK   2 RESOLUTION.    1.76 ANGSTROMS.
REMARK   3
REMARK   3 REFINEMENT.
REMARK   3   PROGRAM     : BUSTER 2.10.4 (14-JUN-2023)
REMARK   3   AUTHORS     : BRICOGNE,BLANC,BRANDL,FLENSBURG,KELLER,
REMARK   3               : PACIOREK,ROVERSI,SHARFF,SMART,VONRHEIN,WOMACK;
REMARK   3               : MATTHEWS,TEN EYCK,TRONRUD
REMARK   3
REMARK   3  DATA USED IN REFINEMENT.
REMARK   3   RESOLUTION RANGE HIGH (ANGSTROMS) : 1.762
REMARK   3   RESOLUTION RANGE LOW  (ANGSTROMS) : 22.86
REMARK   3   DATA CUTOFF            (SIGMA(F)) : 0.000
REMARK   3   COMPLETENESS FOR RANGE        (%) : 81.1
REMARK   3   NUMBER OF REFLECTIONS             : 16911
REMARK   3
REMARK   3  FIT TO DATA USED IN REFINEMENT.
REMARK   3   CROSS-VALIDATION METHOD          : THROUGHOUT
REMARK   3   FREE R VALUE TEST SET SELECTION  : RANDOM
REMARK   3   R VALUE     (WORKING + TEST SET) : 0.2347
REMARK   3   R VALUE            (WORKING SET) : 0.2318
REMARK   3   FREE R VALUE                     : 0.2916
REMARK   3   FREE R VALUE TEST SET SIZE   (%) : 4.830
REMARK   3   FREE R VALUE TEST SET COUNT      : 817
REMARK   3   ESTIMATED ERROR OF FREE R VALUE  : NULL
REMARK   3
REMARK   3  FIT IN THE HIGHEST RESOLUTION BIN.
REMARK   3   TOTAL NUMBER OF BINS USED           : 41
REMARK   3   BIN RESOLUTION RANGE HIGH       (A) : 1.76
REMARK   3   BIN RESOLUTION RANGE LOW        (A) : 1.91
REMARK   3   BIN COMPLETENESS (WORKING+TEST) (%) : 9.61
REMARK   3   REFLECTIONS IN BIN   (WORKING+TEST) : 423
REMARK   3   BIN R VALUE          (WORKING+TEST) : 0.5618
REMARK   3   REFLECTIONS IN BIN    (WORKING SET) : 403
REMARK   3   BIN R VALUE           (WORKING SET) : 0.5615
REMARK   3   BIN FREE R VALUE                    : 0.5695
REMARK   3   BIN FREE R VALUE TEST SET SIZE  (%) : 4.73
REMARK   3   BIN FREE R VALUE TEST SET COUNT     : 20
REMARK   3   ESTIMATED ERROR OF BIN FREE R VALUE : NULL
REMARK   3
REMARK   3  NUMBER OF NON-HYDROGEN ATOMS USED IN REFINEMENT.
REMARK   3   PROTEIN ATOMS            : 1476
REMARK   3   NUCLEIC ACID ATOMS       : 0
REMARK   3   HETEROGEN ATOMS          : 23
REMARK   3   SOLVENT ATOMS            : 115
REMARK   3
REMARK   3  B VALUES.
REMARK   3   FROM WILSON PLOT           (A**2) : 36.65
REMARK   3   MEAN B VALUE      (OVERALL, A**2) : 54.14
REMARK   3   OVERALL ANISOTROPIC B VALUE.
REMARK   3    B11 (A**2) : -6.87630
REMARK   3    B22 (A**2) : -6.87630
REMARK   3    B33 (A**2) : 13.75260
REMARK   3    B12 (A**2) : 0.00000
REMARK   3    B13 (A**2) : 0.00000
REMARK   3    B23 (A**2) : 0.00000
REMARK   3
REMARK   3  ESTIMATED COORDINATE ERROR.
REMARK   3   ESD FROM LUZZATI PLOT                    (A) : 0.48
REMARK   3   DPI (BLOW EQ-10) BASED ON R VALUE        (A) : 0.198
REMARK   3   DPI (BLOW EQ-9) BASED ON FREE R VALUE    (A) : 0.183
REMARK   3   DPI (CRUICKSHANK) BASED ON R VALUE       (A) : 0.181
REMARK   3   DPI (CRUICKSHANK) BASED ON FREE R VALUE  (A) : 0.175
REMARK   3
REMARK   3   REFERENCES: BLOW, D. (2002) ACTA CRYST D58, 792-797
REMARK   3               CRUICKSHANK, D.W.J. (1999) ACTA CRYST D55, 583-601
REMARK   3
REMARK   3  CORRELATION COEFFICIENTS.
REMARK   3   CORRELATION COEFFICIENT FO-FC      : 0.944
REMARK   3   CORRELATION COEFFICIENT FO-FC FREE : 0.915
REMARK   3
REMARK   3  X-RAY WEIGHT : 8.54
REMARK   3
REMARK   3  GEOMETRY FUNCTION.                                                  
REMARK   3   RESTRAINT LIBRARIES.                                               
REMARK   3    NUMBER OF LIBRARIES USED :   9                                    
REMARK   3    LIBRARY  1 : protgeo_eh99.dat (V1.6.4.20) 20220523  STANDARD      
REMARK   3                 AMINO ACID DICTIONARY. BONDS AND ANGLES FROM         
REMARK   3                 ENGH AND HUBER EH99. OTHER VALUES BASED ON           
REMARK   3                 PREVIOUS TNT OR TAKEN FROM CCP4. INCLUDES            
REMARK   3                 HYDROGEN ATOMS.                                      
REMARK   3    LIBRARY  2 : exoticaa.dat (V1.3.4.16) 20220523  COLLECTION        
REMARK   3                 OF NON-STANDARD AMINO ACIDS, MAINLY EH91             
REMARK   3                 WITHOUT IDEAL DISTANCE INFO                          
REMARK   3    LIBRARY  3 : nuclgeo.dat (V1.13.4.9) 20221011                     
REMARK   3    LIBRARY  4 : bcorrel.dat (V1.15.10.2) 20190616                    
REMARK   3    LIBRARY  5 : contact.dat (V1.15.12.10) 20191121                   
REMARK   3    LIBRARY  6 : idealdist_contact.dat (V1.3.4.13) 20220125           
REMARK   3                 IDEAL-DISTANCE CONTACT TERM DATA AS USED IN          
REMARK   3                 PROLSQ. VALUES USED HERE ARE BASED ON DATA           
REMARK   3                 HARVESTING OF PDB AS OF 20190109.                    
REMARK   3    LIBRARY  7 : restraints for LIG (unknown) from cif                
REMARK   3                 dictionary Z1787627869.cif; generated by GRADE       
REMARK   3                 1.2.21 (Feb 03 2022) from SMILES                     
REMARK   3                 CN(CC1CCOC1)c2ncncc2Cl using MOGUL                   
REMARK   3                 1.8.5(274361), CSD as541be, with quantum             
REMARK   3                 mechanics RM1                                        
REMARK   3    LIBRARY  8 : restraints for DMS (DIMETHYL SULFOXIDE) from         
REMARK   3                 cif dictionary DMS.cif; generated by grade2          
REMARK   3                 version 1.1.0a7 from                                 
REMARK   3                 PDB_chemical_components_definition_file              
REMARK   3                 ftp://ftp.ebi.ac.uk/pub/databases/msd/pdbechem_v     
REMARK   3                 2/D/DMS/DMS.cif using RDKit 2021.03.4                
REMARK   3                 ((DatabaseID PDB-DMS))                               
REMARK   3    LIBRARY  9 : assume.dat (V1.9.4.3) 20221011                       
REMARK   3                                                                      
REMARK   3   NUMBER OF GEOMETRIC FUNCTION TERMS DEFINED : 15                    
REMARK   3   TERM                          COUNT    WEIGHT   FUNCTION.          
REMARK   3    BOND LENGTHS              :   1654 ;   2.00 ;  HARMONIC           
REMARK   3    BOND ANGLES               :   2267 ;   2.00 ;  HARMONIC           
REMARK   3    TORSION ANGLES            :    564 ;   2.00 ;  SINUSOIDAL         
REMARK   3    TRIGONAL CARBON PLANES    :   NULL ;   NULL ;  NULL               
REMARK   3    GENERAL PLANES            :    294 ;   5.00 ;  HARMONIC           
REMARK   3    ISOTROPIC THERMAL FACTORS :   1638 ;  10.00 ;  HARMONIC           
REMARK   3    BAD NON-BONDED CONTACTS   :   NULL ;   NULL ;  NULL               
REMARK   3    IMPROPER TORSIONS         :   NULL ;   NULL ;  NULL               
REMARK   3    PSEUDOROTATION ANGLES     :   NULL ;   NULL ;  NULL               
REMARK   3    CHIRAL IMPROPER TORSION   :    206 ;   5.00 ;  SEMIHARMONIC       
REMARK   3    SUM OF OCCUPANCIES        :   NULL ;   NULL ;  NULL               
REMARK   3    UTILITY DISTANCES         :   NULL ;   NULL ;  NULL               
REMARK   3    UTILITY ANGLES            :   NULL ;   NULL ;  NULL               
REMARK   3    UTILITY TORSION           :   NULL ;   NULL ;  NULL               
REMARK   3    IDEAL-DIST CONTACT TERM   :   1353 ;   4.00 ;  SEMIHARMONIC       
REMARK   3                                                                      
REMARK   3   RMS DEVIATIONS FROM IDEAL VALUES.                                  
REMARK   3   BOND LENGTHS                       (A) : 0.009                     
REMARK   3   BOND ANGLES                  (DEGREES) : 1.04                      
REMARK   3   PEPTIDE OMEGA TORSION ANGLES (DEGREES) : 3.45                      
REMARK   3   OTHER TORSION ANGLES         (DEGREES) : 17.76                     
REMARK   3                                                                      
REMARK   3   SIMILARITY.                                                        
REMARK   3    NCS.                                                              
REMARK   3     NCS METHOD: NONE                                                 
REMARK   3    TARGET RESTRAINTS.                                                
REMARK   3     TARGET REPRESENTATION : NONE                                     
REMARK   3     TARGET STRUCTURE : NULL                                          
REMARK   3                                                                      
REMARK   3  TLS DETAILS.                                                        
REMARK   3   NUMBER OF TLS GROUPS  :            2                               
REMARK   3                                                                      
REMARK   3   TLS GROUP :            1                                           
REMARK   3    SET : { A|* }                                                     
REMARK   3    ORIGIN FOR THE GROUP (A):  -14.6159   -1.2542  -19.8913           
REMARK   3    T TENSOR                                                          
REMARK   3     T11:   -0.0883 T22:   -0.0855                                    
REMARK   3     T33:   -0.2627 T12:    0.0730                                    
REMARK   3     T13:    0.0727 T23:    0.0835                                    
REMARK   3    L TENSOR                                                          
REMARK   3     L11:    3.4989 L22:    3.7688                                    
REMARK   3     L33:    3.8147 L12:   -1.7415                                    
REMARK   3     L13:    0.6967 L23:    0.9288                                    
REMARK   3    S TENSOR                                                          
REMARK   3     S11:    0.3666 S12:    0.3121 S13:    0.0408                     
REMARK   3     S21:   -0.5040 S22:   -0.2270 S23:   -0.1548                     
REMARK   3     S31:   -0.1415 S32:    0.4103 S33:   -0.1397                     
REMARK   3                                                                      
REMARK   3   TLS GROUP :            2                                           
REMARK   3    SET : { B|* }                                                     
REMARK   3    ORIGIN FOR THE GROUP (A):  -18.3683    1.3528  -15.6241           
REMARK   3    T TENSOR                                                          
REMARK   3     T11:    0.0478 T22:   -0.0326                                    
REMARK   3     T33:   -0.0704 T12:    0.0795                                    
REMARK   3     T13:    0.0142 T23:    0.0245                                    
REMARK   3    L TENSOR                                                          
REMARK   3     L11:    1.0786 L22:    2.1502                                    
REMARK   3     L33:    2.3950 L12:   -1.4184                                    
REMARK   3     L13:    0.5794 L23:    0.1821                                    
REMARK   3    S TENSOR                                                          
REMARK   3     S11:    0.2190 S12:    0.0675 S13:    0.1084                     
REMARK   3     S21:   -0.1683 S22:   -0.1950 S23:   -0.0389                     
REMARK   3     S31:   -0.0530 S32:    0.2713 S33:   -0.0239                     
REMARK   3                                                                      
REMARK   3  REFINEMENT NOTES.                                                   
REMARK   3   NUMBER OF REFINEMENT NOTES :   1                                   
REMARK   3   NOTE   1 : IDEAL-DIST CONTACT TERM CONTACT SETUP. ALL ATOMS        
REMARK   3               HAVE CCP4 ATOM TYPE FROM LIBRARY                       
REMARK   3
REMARK   3  OTHER REFINEMENT REMARKS: NULL
REMARK   3
REMARK 290                                                            
REMARK 290 CRYSTALLOGRAPHIC SYMMETRY                                  
REMARK 290 SYMMETRY OPERATORS FOR SPACE GROUP: P 43 2 2               
REMARK 290                                                            
REMARK 290      SYMOP   SYMMETRY                                      
REMARK 290     NNNMMM   OPERATOR                                      
REMARK 290       1555   X,Y,Z                                         
REMARK 290       2555   -X,-Y,1/2+Z                                   
REMARK 290       3555   -Y,X,3/4+Z                                    
REMARK 290       4555   Y,-X,1/4+Z                                    
REMARK 290       5555   -X,Y,-Z                                       
REMARK 290       6555   X,-Y,1/2-Z                                    
REMARK 290       7555   Y,X,1/4-Z                                     
REMARK 290       8555   -Y,-X,3/4-Z                                   
REMARK 290                                                            
REMARK 290     WHERE NNN -> OPERATOR NUMBER                           
REMARK 290           MMM -> TRANSLATION VECTOR                        
REMARK 290                                                            
REMARK 290 CRYSTALLOGRAPHIC SYMMETRY TRANSFORMATIONS                  
REMARK 290 THE FOLLOWING TRANSFORMATIONS OPERATE ON THE ATOM/HETATM   
REMARK 290 RECORDS IN THIS ENTRY TO PRODUCE CRYSTALLOGRAPHICALLY      
REMARK 290 RELATED MOLECULES.                                         
REMARK 290   SMTRY1   1  1.000000  0.000000  0.000000        0.00000
REMARK 290   SMTRY2   1  0.000000  1.000000  0.000000        0.00000
REMARK 290   SMTRY3   1  0.000000  0.000000  1.000000        0.00000
REMARK 290   SMTRY1   2 -1.000000  0.000000  0.000000        0.00000
REMARK 290   SMTRY2   2  0.000000 -1.000000  0.000000        0.00000
REMARK 290   SMTRY3   2  0.000000  0.000000  1.000000      108.37150
REMARK 290   SMTRY1   3  0.000000 -1.000000  0.000000        0.00000
REMARK 290   SMTRY2   3  1.000000  0.000000  0.000000        0.00000
REMARK 290   SMTRY3   3  0.000000  0.000000  1.000000      162.55725
REMARK 290   SMTRY1   4  0.000000  1.000000  0.000000        0.00000
REMARK 290   SMTRY2   4 -1.000000  0.000000  0.000000        0.00000
REMARK 290   SMTRY3   4  0.000000  0.000000  1.000000       54.18575
REMARK 290   SMTRY1   5 -1.000000  0.000000  0.000000        0.00000
REMARK 290   SMTRY2   5  0.000000  1.000000  0.000000        0.00000
REMARK 290   SMTRY3   5  0.000000  0.000000 -1.000000        0.00000
REMARK 290   SMTRY1   6  1.000000  0.000000  0.000000        0.00000
REMARK 290   SMTRY2   6  0.000000 -1.000000  0.000000        0.00000
REMARK 290   SMTRY3   6  0.000000  0.000000 -1.000000      108.37150
REMARK 290   SMTRY1   7  0.000000  1.000000  0.000000        0.00000
REMARK 290   SMTRY2   7  1.000000  0.000000  0.000000        0.00000
REMARK 290   SMTRY3   7  0.000000  0.000000 -1.000000       54.18575
REMARK 290   SMTRY1   8  0.000000 -1.000000  0.000000        0.00000
REMARK 290   SMTRY2   8 -1.000000  0.000000  0.000000        0.00000
REMARK 290   SMTRY3   8  0.000000  0.000000 -1.000000      162.55725
REMARK 290                                                            
REMARK 290 REMARK: NULL                                               
CRYST1   42.584   42.584  216.743  90.00  90.00  90.00 P 43 2 2                 


$$$$
Zx0875a_ligand
  PyMOL3.0          3D                             0

 15 16  0  0  0  0  0  0  0  0999 V2000
   -6.9920    4.1780  -19.9500 Cl  0  0  0  0  0  0  0  0  0  0  0  0
   -8.0970    4.6050  -18.6850 C   0  0  0  0  0  0  0  0  0  0  0  0
  -10.2150    4.2030  -17.6750 N   0  0  0  0  0  0  0  0  0  0  0  0
   -3.6020    6.3860  -13.7360 O   0  0  0  0  0  0  0  0  0  0  0  0
   -9.4000    4.1440  -18.7260 C   0  0  0  0  0  0  0  0  0  0  0  0
   -8.4450    5.2040  -16.4010 N   0  0  0  0  0  0  0  0  0  0  0  0
   -9.6790    4.7220  -16.5730 C   0  0  0  0  0  0  0  0  0  0  0  0
   -6.4280    5.7220  -17.3860 N   0  0  0  0  0  0  0  0  0  0  0  0
   -7.6620    5.1490  -17.4850 C   0  0  0  0  0  0  0  0  0  0  0  0
   -6.0070    6.8230  -18.2460 C   0  0  0  0  0  0  0  0  0  0  0  0
   -5.4790    5.3000  -16.3660 C   0  0  0  0  0  0  0  0  0  0  0  0
   -5.5410    6.1440  -15.1000 C   0  0  0  0  0  0  0  0  0  0  0  0
   -4.2410    6.9330  -14.8840 C   0  0  0  0  0  0  0  0  0  0  0  0
   -4.6510    5.9460  -12.8900 C   0  0  0  0  0  0  0  0  0  0  0  0
   -5.6470    5.3050  -13.8170 C   0  0  0  0  0  0  0  0  0  0  0  0
  1  2  1  0  0  0  0
  2  5  4  0  0  0  0
  2  9  4  0  0  0  0
  3  7  4  0  0  0  0
  4 14  1  0  0  0  0
  3  5  4  0  0  0  0
  6  9  4  0  0  0  0
  6  7  4  0  0  0  0
  8 10  1  0  0  0  0
  8 11  1  0  0  0  0
  8  9  1  0  0  0  0
 11 12  1  0  0  0  0
 12 13  1  0  0  0  0
 12 15  1  0  0  0  0
  4 13  1  0  0  0  0
 14 15  1  0  0  0  0
M  END
>  <pdb_header>
COMPND    XX01ZVNS2B-x0875_B_301_XX01ZVNS2B-x1291+B+301+1


$$$$
Zx0884a
  PyMOL3.0          3D                             0

 28 28  0  0  0  0  0  0  0  0999 V2000
   -6.4670    4.3590  -21.0270 N   0  0  0  0  0  0  0  0  0  0  0  0
   -3.5790    4.6700  -17.2150 C   0  0  0  0  0  0  0  0  0  0  0  0
   -5.8010    5.2410  -17.7550 O   0  0  0  0  0  0  0  0  0  0  0  0
   -4.9050    5.1240  -16.6480 C   0  0  0  0  0  0  0  0  0  0  0  0
   -5.4750    7.4880  -16.4180 N   0  0  0  0  0  0  0  0  0  0  0  0
   -3.9470    6.5870  -15.0260 O   0  0  0  0  0  0  0  0  0  0  0  0
   -7.1010    4.8240  -17.6010 C   0  0  0  0  0  0  0  0  0  0  0  0
   -7.7970    4.8030  -16.3990 C   0  0  0  0  0  0  0  0  0  0  0  0
   -9.1350    4.4440  -16.3820 C   0  0  0  0  0  0  0  0  0  0  0  0
   -9.7880    4.1250  -17.5520 C   0  0  0  0  0  0  0  0  0  0  0  0
   -9.1090    4.1400  -18.7550 C   0  0  0  0  0  0  0  0  0  0  0  0
   -7.7530    4.4680  -18.7900 C   0  0  0  0  0  0  0  0  0  0  0  0
   -7.0170    4.4120  -20.0260 C   0  0  0  0  0  0  0  0  0  0  0  0
   -4.7480    6.4790  -15.9590 C   0  0  0  0  0  0  0  0  0  0  0  0
  -12.5740   -7.0610   -9.0800 N   0  0  0  0  0  0  0  0  0  0  0  0
  -12.9840  -11.9320   -9.0650 C   0  0  0  0  0  0  0  0  0  0  0  0
  -12.5830  -10.1910   -7.4560 O   0  0  0  0  0  0  0  0  0  0  0  0
  -12.0540  -10.8160   -8.6300 C   0  0  0  0  0  0  0  0  0  0  0  0
   -9.7710  -10.4630   -7.8420 N   0  0  0  0  0  0  0  0  0  0  0  0
  -10.3910  -12.5310   -8.4830 O   0  0  0  0  0  0  0  0  0  0  0  0
  -13.9220   -9.8550   -7.4110 C   0  0  0  0  0  0  0  0  0  0  0  0
  -14.8700  -10.6280   -6.7510 C   0  0  0  0  0  0  0  0  0  0  0  0
  -16.2030  -10.2460   -6.7540 C   0  0  0  0  0  0  0  0  0  0  0  0
  -16.5950   -9.0960   -7.4030 C   0  0  0  0  0  0  0  0  0  0  0  0
  -15.6610   -8.2990   -8.0420 C   0  0  0  0  0  0  0  0  0  0  0  0
  -14.3140   -8.6640   -8.0470 C   0  0  0  0  0  0  0  0  0  0  0  0
  -13.3270   -7.7840   -8.6190 C   0  0  0  0  0  0  0  0  0  0  0  0
  -10.6520  -11.3370   -8.3050 C   0  0  0  0  0  0  0  0  0  0  0  0
  3  7  1  0  0  0  0
  2  4  1  0  0  0  0
  3  4  1  0  0  0  0
  6 14  2  0  0  0  0
  7  8  4  0  0  0  0
  7 12  4  0  0  0  0
  8  9  4  0  0  0  0
  9 10  4  0  0  0  0
 10 11  4  0  0  0  0
 11 12  4  0  0  0  0
 12 13  1  0  0  0  0
  1 13  3  0  0  0  0
  4 14  1  0  0  0  0
  5 14  1  0  0  0  0
 17 21  1  0  0  0  0
 16 18  1  0  0  0  0
 17 18  1  0  0  0  0
 20 28  2  0  0  0  0
 21 22  4  0  0  0  0
 21 26  4  0  0  0  0
 22 23  4  0  0  0  0
 23 24  4  0  0  0  0
 24 25  4  0  0  0  0
 25 26  4  0  0  0  0
 26 27  1  0  0  0  0
 15 27  3  0  0  0  0
 18 28  1  0  0  0  0
 19 28  1  0  0  0  0
M  END
>  <pdb_header>
HEADER    ----                                    18-MAY-23                     
TITLE     ---                                                                   
EXPDTA    X-RAY DIFFRACTION                                                     
REMARK --------------------- added by autoBUSTER ---------------------------------START
REMARK run at   = Fri Sep 29 18:28:36 BST 2023
REMARK     in   = /dls/labxchem/data/lb32627/lb32627-65/processing/analysis/model_building/XX01ZVNS2B-x0884
REMARK     user = kyf22269
REMARK     cmd  = \
REMARK            /dls_sw/apps/GPhL/BUSTER/20230726/autoBUSTER/bin/linux64/refine \
REMARK            -p \
REMARK            /dls/labxchem/data/lb32627/lb32627-65/processing/analysis/model_building/XX01ZVNS2B-x0884/cootOut/Refi
REMARK            -m \
REMARK            /dls/labxchem/data/lb32627/lb32627-65/processing/analysis/model_building/XX01ZVNS2B-x0884/XX01ZVNS2B-x
REMARK            -l \
REMARK            /dls/labxchem/data/lb32627/lb32627-65/processing/analysis/model_building/XX01ZVNS2B-x0884/Z18769001.ci
REMARK            -autoncs -M TLSbasic -d Refine_6
REMARK Files used:
REMARK   PDB              = Refine_6/pdbchk.pdb
REMARK   MTZ              = /dls/labxchem/data/lb32627/lb32627-65/processing/analysis/model_building/XX01ZVNS2B-x0884/XX
REMARK output written to subdirectory = Refine_6
REMARK best refinement for F,SIGF with R/Rfree 0.2291/0.2672
REMARK header records are copied from input PDB file (apart from REMARK 3!)
REMARK --------------------- added by autoBUSTER -----------------------------------END
REMARK --------------------- added by autoBUSTER -------------------------------
REMARK run at   = Thu Jun 15 21:32:14 BST 2023                                  
REMARK     in   = /dls/labxchem/data/lb32627/lb32627-65/processing/analysis/mode
REMARK     user = xau79897                                                      
REMARK     cmd  = \                                                             
REMARK            /dls_sw/apps/GPhL/BUSTER/20230614/autoBUSTER/bin/linux64/refin
REMARK            -p \                                                          
REMARK            /dls/labxchem/data/lb32627/lb32627-65/processing/analysis/mode
REMARK            -m \                                                          
REMARK            /dls/labxchem/data/lb32627/lb32627-65/processing/analysis/mode
REMARK            -l \                                                          
REMARK            /dls/labxchem/data/lb32627/lb32627-65/processing/analysis/mode
REMARK            -autoncs -M TLSbasic -WAT -B user -Gelly gelly.dat \          
REMARK            StopOnGellySanityCheckError=no -d Refine_5                    
REMARK Files used:                                                              
REMARK   PDB              = Refine_5/pdbchk.pdb                                 
REMARK   MTZ              = /dls/labxchem/data/lb32627/lb32627-65/processing/ana
REMARK   Gelly commands       = /dls/labxchem/data/lb32627/lb32627-65/processing
REMARK output written to subdirectory = Refine_5                                
REMARK best refinement for F,SIGF with R/Rfree 0.2299/0.2657                    
REMARK header records are copied from input PDB file (apart from REMARK 3!)     
REMARK --------------------- added by autoBUSTER -------------------------------
REMARK --------------------- added by autoBUSTER -------------------------------
REMARK run at   = Tue May 30 16:18:19 BST 2023                                  
REMARK     in   = /dls/labxchem/data/lb32627/lb32627-65/processing/analysis/mode
REMARK     user = xau79897                                                      
REMARK     cmd  = \                                                             
REMARK            /dls_sw/apps/GPhL/BUSTER/20230217/autoBUSTER/bin/linux64/refin
REMARK            -p \                                                          
REMARK            /dls/labxchem/data/lb32627/lb32627-65/processing/analysis/mode
REMARK            -m \                                                          
REMARK            /dls/labxchem/data/lb32627/lb32627-65/processing/analysis/mode
REMARK            -l \                                                          
REMARK            /dls/labxchem/data/lb32627/lb32627-65/processing/analysis/mode
REMARK            -autoncs -M TLSbasic -WAT -B user -Gelly gelly.dat \          
REMARK            StopOnGellySanityCheckError=no -d Refine_4                    
REMARK Files used:                                                              
REMARK   PDB              = Refine_4/pdbchk.pdb                                 
REMARK   MTZ              = /dls/labxchem/data/lb32627/lb32627-65/processing/ana
REMARK   Gelly commands       = /dls/labxchem/data/lb32627/lb32627-65/processing
REMARK output written to subdirectory = Refine_4                                
REMARK best refinement for F,SIGF with R/Rfree 0.2325/0.2722                    
REMARK header records are copied from input PDB file (apart from REMARK 3!)     
REMARK --------------------- added by autoBUSTER -------------------------------
REMARK --------------------- added by autoBUSTER -------------------------------
REMARK run at   = Tue May 23 17:17:40 BST 2023                                  
REMARK     in   = /dls/labxchem/data/lb32627/lb32627-65/processing/analysis/mode
REMARK     user = xau79897                                                      
REMARK     cmd  = \                                                             
REMARK            /dls_sw/apps/GPhL/BUSTER/20230217/autoBUSTER/bin/linux64/refin
REMARK            -p \                                                          
REMARK            /dls/labxchem/data/lb32627/lb32627-65/processing/analysis/mode
REMARK            -m \                                                          
REMARK            /dls/labxchem/data/lb32627/lb32627-65/processing/analysis/mode
REMARK            -l \                                                          
REMARK            /dls/labxchem/data/lb32627/lb32627-65/processing/analysis/mode
REMARK            -autoncs -M TLSbasic -d Refine_3                              
REMARK Files used:                                                              
REMARK   PDB              = Refine_3/pdbchk.pdb                                 
REMARK   MTZ              = /dls/labxchem/data/lb32627/lb32627-65/processing/ana
REMARK output written to subdirectory = Refine_3                                
REMARK best refinement for F,SIGF with R/Rfree 0.2394/0.2670                    
REMARK header records are copied from input PDB file (apart from REMARK 3!)     
REMARK --------------------- added by autoBUSTER -------------------------------
REMARK   2                                                            
REMARK   2 RESOLUTION.    1.59 ANGSTROMS.
REMARK   3
REMARK   3 REFINEMENT.
REMARK   3   PROGRAM     : BUSTER 2.10.4 (26-JUL-2023)
REMARK   3   AUTHORS     : BRICOGNE,BLANC,BRANDL,FLENSBURG,KELLER,
REMARK   3               : PACIOREK,ROVERSI,SHARFF,SMART,VONRHEIN,WOMACK;
REMARK   3               : MATTHEWS,TEN EYCK,TRONRUD
REMARK   3
REMARK   3  DATA USED IN REFINEMENT.
REMARK   3   RESOLUTION RANGE HIGH (ANGSTROMS) : 1.595
REMARK   3   RESOLUTION RANGE LOW  (ANGSTROMS) : 24.73
REMARK   3   DATA CUTOFF            (SIGMA(F)) : 0.000
REMARK   3   COMPLETENESS FOR RANGE        (%) : 88.3
REMARK   3   NUMBER OF REFLECTIONS             : 24631
REMARK   3
REMARK   3  FIT TO DATA USED IN REFINEMENT.
REMARK   3   CROSS-VALIDATION METHOD          : THROUGHOUT
REMARK   3   FREE R VALUE TEST SET SELECTION  : RANDOM
REMARK   3   R VALUE     (WORKING + TEST SET) : 0.2310
REMARK   3   R VALUE            (WORKING SET) : 0.2291
REMARK   3   FREE R VALUE                     : 0.2672
REMARK   3   FREE R VALUE TEST SET SIZE   (%) : 5.130
REMARK   3   FREE R VALUE TEST SET COUNT      : 1264
REMARK   3   ESTIMATED ERROR OF FREE R VALUE  : NULL
REMARK   3
REMARK   3  FIT IN THE HIGHEST RESOLUTION BIN.
REMARK   3   TOTAL NUMBER OF BINS USED           : 51
REMARK   3   BIN RESOLUTION RANGE HIGH       (A) : 1.59
REMARK   3   BIN RESOLUTION RANGE LOW        (A) : 1.66
REMARK   3   BIN COMPLETENESS (WORKING+TEST) (%) : 17.12
REMARK   3   REFLECTIONS IN BIN   (WORKING+TEST) : 493
REMARK   3   BIN R VALUE          (WORKING+TEST) : 0.5723
REMARK   3   REFLECTIONS IN BIN    (WORKING SET) : 469
REMARK   3   BIN R VALUE           (WORKING SET) : 0.5752
REMARK   3   BIN FREE R VALUE                    : 0.5095
REMARK   3   BIN FREE R VALUE TEST SET SIZE  (%) : 4.87
REMARK   3   BIN FREE R VALUE TEST SET COUNT     : 24
REMARK   3   ESTIMATED ERROR OF BIN FREE R VALUE : NULL
REMARK   3
REMARK   3  NUMBER OF NON-HYDROGEN ATOMS USED IN REFINEMENT.
REMARK   3   PROTEIN ATOMS            : 1476
REMARK   3   NUCLEIC ACID ATOMS       : 0
REMARK   3   HETEROGEN ATOMS          : 36
REMARK   3   SOLVENT ATOMS            : 126
REMARK   3
REMARK   3  B VALUES.
REMARK   3   FROM WILSON PLOT           (A**2) : 29.37
REMARK   3   MEAN B VALUE      (OVERALL, A**2) : 44.19
REMARK   3   OVERALL ANISOTROPIC B VALUE.
REMARK   3    B11 (A**2) : -6.39690
REMARK   3    B22 (A**2) : -6.39690
REMARK   3    B33 (A**2) : 12.79380
REMARK   3    B12 (A**2) : 0.00000
REMARK   3    B13 (A**2) : 0.00000
REMARK   3    B23 (A**2) : 0.00000
REMARK   3
REMARK   3  ESTIMATED COORDINATE ERROR.
REMARK   3   ESD FROM LUZZATI PLOT                    (A) : 0.34
REMARK   3   DPI (BLOW EQ-10) BASED ON R VALUE        (A) : 0.128
REMARK   3   DPI (BLOW EQ-9) BASED ON FREE R VALUE    (A) : 0.123
REMARK   3   DPI (CRUICKSHANK) BASED ON R VALUE       (A) : 0.119
REMARK   3   DPI (CRUICKSHANK) BASED ON FREE R VALUE  (A) : 0.118
REMARK   3
REMARK   3   REFERENCES: BLOW, D. (2002) ACTA CRYST D58, 792-797
REMARK   3               CRUICKSHANK, D.W.J. (1999) ACTA CRYST D55, 583-601
REMARK   3
REMARK   3  CORRELATION COEFFICIENTS.
REMARK   3   CORRELATION COEFFICIENT FO-FC      : 0.944
REMARK   3   CORRELATION COEFFICIENT FO-FC FREE : 0.933
REMARK   3
REMARK   3  X-RAY WEIGHT : 7.31
REMARK   3
REMARK   3  GEOMETRY FUNCTION.                                                  
REMARK   3   RESTRAINT LIBRARIES.                                               
REMARK   3    NUMBER OF LIBRARIES USED :   9                                    
REMARK   3    LIBRARY  1 : protgeo_eh99.dat (V1.6.4.20) 20220523  STANDARD      
REMARK   3                 AMINO ACID DICTIONARY. BONDS AND ANGLES FROM         
REMARK   3                 ENGH AND HUBER EH99. OTHER VALUES BASED ON           
REMARK   3                 PREVIOUS TNT OR TAKEN FROM CCP4. INCLUDES            
REMARK   3                 HYDROGEN ATOMS.                                      
REMARK   3    LIBRARY  2 : exoticaa.dat (V1.3.4.16) 20220523  COLLECTION        
REMARK   3                 OF NON-STANDARD AMINO ACIDS, MAINLY EH91             
REMARK   3                 WITHOUT IDEAL DISTANCE INFO                          
REMARK   3    LIBRARY  3 : nuclgeo.dat (V1.13.4.9) 20221011                     
REMARK   3    LIBRARY  4 : bcorrel.dat (V1.15.10.2) 20190616                    
REMARK   3    LIBRARY  5 : contact.dat (V1.15.12.10) 20191121                   
REMARK   3    LIBRARY  6 : idealdist_contact.dat (V1.3.4.14) 20230724           
REMARK   3                 IDEAL-DISTANCE CONTACT TERM DATA AS USED IN          
REMARK   3                 PROLSQ. VALUES USED HERE ARE BASEd ON DATA           
REMARK   3                 HARVESTING OF PDB AS OF 20190109                     
REMARK   3    LIBRARY  7 : restraints for LIG (unknown) from cif                
REMARK   3                 dictionary Z18769001.cif; generated by GRADE         
REMARK   3                 1.2.21 (Feb 03 2022) from SMILES CC(Oc1ccccc1C       
REMARK   3    LIBRARY  8 : restraints for DMS (DIMETHYL SULFOXIDE) from         
REMARK   3                 cif dictionary DMS.cif; generated by grade2          
REMARK   3                 version 1.1.0a7 from                                 
REMARK   3                 PDB_chemical_components_definition_file              
REMARK   3                 ftp://ftp.ebi.ac.uk/pub/databases/msd/pdbechem_v     
REMARK   3                 2/D/DMS/DMS.cif using RDKit 2021.03.4                
REMARK   3                 ((DatabaseID PDB-DMS))                               
REMARK   3    LIBRARY  9 : assume.dat (V1.9.4.3) 20221011                       
REMARK   3                                                                      
REMARK   3   NUMBER OF GEOMETRIC FUNCTION TERMS DEFINED : 15                    
REMARK   3   TERM                          COUNT    WEIGHT   FUNCTION.          
REMARK   3    BOND LENGTHS              :   1661 ;   2.00 ;  HARMONIC           
REMARK   3    BOND ANGLES               :   2272 ;   2.00 ;  HARMONIC           
REMARK   3    TORSION ANGLES            :    561 ;   2.00 ;  SINUSOIDAL         
REMARK   3    TRIGONAL CARBON PLANES    :   NULL ;   NULL ;  NULL               
REMARK   3    GENERAL PLANES            :    304 ;   5.00 ;  HARMONIC           
REMARK   3    ISOTROPIC THERMAL FACTORS :   1661 ;  10.00 ;  HARMONIC           
REMARK   3    BAD NON-BONDED CONTACTS   :   NULL ;   NULL ;  NULL               
REMARK   3    IMPROPER TORSIONS         :   NULL ;   NULL ;  NULL               
REMARK   3    PSEUDOROTATION ANGLES     :   NULL ;   NULL ;  NULL               
REMARK   3    CHIRAL IMPROPER TORSION   :    204 ;   5.00 ;  SEMIHARMONIC       
REMARK   3    SUM OF OCCUPANCIES        :   NULL ;   NULL ;  NULL               
REMARK   3    UTILITY DISTANCES         :   NULL ;   NULL ;  NULL               
REMARK   3    UTILITY ANGLES            :   NULL ;   NULL ;  NULL               
REMARK   3    UTILITY TORSION           :   NULL ;   NULL ;  NULL               
REMARK   3    IDEAL-DIST CONTACT TERM   :   1351 ;   4.00 ;  SEMIHARMONIC       
REMARK   3                                                                      
REMARK   3   RMS DEVIATIONS FROM IDEAL VALUES.                                  
REMARK   3   BOND LENGTHS                       (A) : 0.010                     
REMARK   3   BOND ANGLES                  (DEGREES) : 1.03                      
REMARK   3   PEPTIDE OMEGA TORSION ANGLES (DEGREES) : 3.75                      
REMARK   3   OTHER TORSION ANGLES         (DEGREES) : 16.38                     
REMARK   3                                                                      
REMARK   3   SIMILARITY.                                                        
REMARK   3    NCS.                                                              
REMARK   3     NCS METHOD: NONE                                                 
REMARK   3    TARGET RESTRAINTS.                                                
REMARK   3     TARGET REPRESENTATION : NONE                                     
REMARK   3     TARGET STRUCTURE : NULL                                          
REMARK   3                                                                      
REMARK   3  TLS DETAILS.                                                        
REMARK   3   NUMBER OF TLS GROUPS  :            2                               
REMARK   3                                                                      
REMARK   3   TLS GROUP :            1                                           
REMARK   3    SET : { A|* }                                                     
REMARK   3    ORIGIN FOR THE GROUP (A):  -13.5095   -1.5422  -19.2667           
REMARK   3    T TENSOR                                                          
REMARK   3     T11:   -0.0722 T22:   -0.0366                                    
REMARK   3     T33:   -0.1151 T12:    0.0863                                    
REMARK   3     T13:    0.0731 T23:    0.0713                                    
REMARK   3    L TENSOR                                                          
REMARK   3     L11:    2.6950 L22:    2.9018                                    
REMARK   3     L33:    3.7070 L12:   -1.6623                                    
REMARK   3     L13:    0.6815 L23:    0.7088                                    
REMARK   3    S TENSOR                                                          
REMARK   3     S11:    0.4116 S12:    0.3183 S13:    0.2329                     
REMARK   3     S21:   -0.3833 S22:   -0.2961 S23:   -0.2199                     
REMARK   3     S31:    0.0174 S32:    0.4678 S33:   -0.1155                     
REMARK   3                                                                      
REMARK   3   TLS GROUP :            2                                           
REMARK   3    SET : { B|* }                                                     
REMARK   3    ORIGIN FOR THE GROUP (A):  -18.2258    0.9671  -15.5169           
REMARK   3    T TENSOR                                                          
REMARK   3     T11:    0.0350 T22:   -0.0254                                    
REMARK   3     T33:    0.0044 T12:    0.0927                                    
REMARK   3     T13:    0.0237 T23:    0.0239                                    
REMARK   3    L TENSOR                                                          
REMARK   3     L11:    1.0758 L22:    0.7434                                    
REMARK   3     L33:    2.0589 L12:   -0.7203                                    
REMARK   3     L13:    0.4181 L23:    0.0123                                    
REMARK   3    S TENSOR                                                          
REMARK   3     S11:    0.2266 S12:    0.1172 S13:    0.0599                     
REMARK   3     S21:   -0.0517 S22:   -0.2069 S23:    0.0687                     
REMARK   3     S31:    0.0501 S32:    0.1490 S33:   -0.0197                     
REMARK   3                                                                      
REMARK   3  REFINEMENT NOTES.                                                   
REMARK   3   NUMBER OF REFINEMENT NOTES :   1                                   
REMARK   3   NOTE   1 : IDEAL-DIST CONTACT TERM CONTACT SETUP. ALL ATOMS        
REMARK   3               HAVE CCP4 ATOM TYPE FROM LIBRARY                       
REMARK   3
REMARK   3  OTHER REFINEMENT REMARKS: NULL
REMARK   3
REMARK 290                                                            
REMARK 290 CRYSTALLOGRAPHIC SYMMETRY                                  
REMARK 290 SYMMETRY OPERATORS FOR SPACE GROUP: P 43 2 2               
REMARK 290                                                            
REMARK 290      SYMOP   SYMMETRY                                      
REMARK 290     NNNMMM   OPERATOR                                      
REMARK 290       1555   X,Y,Z                                         
REMARK 290       2555   -X,-Y,1/2+Z                                   
REMARK 290       3555   -Y,X,3/4+Z                                    
REMARK 290       4555   Y,-X,1/4+Z                                    
REMARK 290       5555   -X,Y,-Z                                       
REMARK 290       6555   X,-Y,1/2-Z                                    
REMARK 290       7555   Y,X,1/4-Z                                     
REMARK 290       8555   -Y,-X,3/4-Z                                   
REMARK 290                                                            
REMARK 290     WHERE NNN -> OPERATOR NUMBER                           
REMARK 290           MMM -> TRANSLATION VECTOR                        
REMARK 290                                                            
REMARK 290 CRYSTALLOGRAPHIC SYMMETRY TRANSFORMATIONS                  
REMARK 290 THE FOLLOWING TRANSFORMATIONS OPERATE ON THE ATOM/HETATM   
REMARK 290 RECORDS IN THIS ENTRY TO PRODUCE CRYSTALLOGRAPHICALLY      
REMARK 290 RELATED MOLECULES.                                         
REMARK 290   SMTRY1   1  1.000000  0.000000  0.000000        0.00000
REMARK 290   SMTRY2   1  0.000000  1.000000  0.000000        0.00000
REMARK 290   SMTRY3   1  0.000000  0.000000  1.000000        0.00000
REMARK 290   SMTRY1   2 -1.000000  0.000000  0.000000        0.00000
REMARK 290   SMTRY2   2  0.000000 -1.000000  0.000000        0.00000
REMARK 290   SMTRY3   2  0.000000  0.000000  1.000000      108.35750
REMARK 290   SMTRY1   3  0.000000 -1.000000  0.000000        0.00000
REMARK 290   SMTRY2   3  1.000000  0.000000  0.000000        0.00000
REMARK 290   SMTRY3   3  0.000000  0.000000  1.000000      162.53625
REMARK 290   SMTRY1   4  0.000000  1.000000  0.000000        0.00000
REMARK 290   SMTRY2   4 -1.000000  0.000000  0.000000        0.00000
REMARK 290   SMTRY3   4  0.000000  0.000000  1.000000       54.17875
REMARK 290   SMTRY1   5 -1.000000  0.000000  0.000000        0.00000
REMARK 290   SMTRY2   5  0.000000  1.000000  0.000000        0.00000
REMARK 290   SMTRY3   5  0.000000  0.000000 -1.000000        0.00000
REMARK 290   SMTRY1   6  1.000000  0.000000  0.000000        0.00000
REMARK 290   SMTRY2   6  0.000000 -1.000000  0.000000        0.00000
REMARK 290   SMTRY3   6  0.000000  0.000000 -1.000000      108.35750
REMARK 290   SMTRY1   7  0.000000  1.000000  0.000000        0.00000
REMARK 290   SMTRY2   7  1.000000  0.000000  0.000000        0.00000
REMARK 290   SMTRY3   7  0.000000  0.000000 -1.000000       54.17875
REMARK 290   SMTRY1   8  0.000000 -1.000000  0.000000        0.00000
REMARK 290   SMTRY2   8 -1.000000  0.000000  0.000000        0.00000
REMARK 290   SMTRY3   8  0.000000  0.000000 -1.000000      162.53625
REMARK 290                                                            
REMARK 290 REMARK: NULL                                               
CRYST1   42.596   42.596  216.715  90.00  90.00  90.00 P 43 2 2                 


$$$$
Zx0884a_ligand
  PyMOL3.0          3D                             0

 14 14  0  0  0  0  0  0  0  0999 V2000
   -4.7480    6.4790  -15.9590 C   0  0  0  0  0  0  0  0  0  0  0  0
   -5.4750    7.4880  -16.4180 N   0  0  0  0  0  0  0  0  0  0  0  0
   -3.9470    6.5870  -15.0260 O   0  0  0  0  0  0  0  0  0  0  0  0
   -4.9050    5.1240  -16.6480 C   0  0  0  0  0  0  0  0  0  0  0  0
   -6.4670    4.3590  -21.0270 N   0  0  0  0  0  0  0  0  0  0  0  0
   -5.8010    5.2410  -17.7550 O   0  0  0  0  0  0  0  0  0  0  0  0
   -3.5790    4.6700  -17.2150 C   0  0  0  0  0  0  0  0  0  0  0  0
   -7.1010    4.8240  -17.6010 C   0  0  0  0  0  0  0  0  0  0  0  0
   -7.7530    4.4680  -18.7900 C   0  0  0  0  0  0  0  0  0  0  0  0
   -7.0170    4.4120  -20.0260 C   0  0  0  0  0  0  0  0  0  0  0  0
   -9.1090    4.1400  -18.7550 C   0  0  0  0  0  0  0  0  0  0  0  0
   -9.7880    4.1250  -17.5520 C   0  0  0  0  0  0  0  0  0  0  0  0
   -9.1350    4.4440  -16.3820 C   0  0  0  0  0  0  0  0  0  0  0  0
   -7.7970    4.8030  -16.3990 C   0  0  0  0  0  0  0  0  0  0  0  0
  1  2  1  0  0  0  0
  1  4  1  0  0  0  0
  1  3  2  0  0  0  0
  4  6  1  0  0  0  0
  4  7  1  0  0  0  0
  6  8  1  0  0  0  0
  8  9  4  0  0  0  0
  8 14  4  0  0  0  0
  9 10  1  0  0  0  0
  9 11  4  0  0  0  0
  5 10  3  0  0  0  0
 11 12  4  0  0  0  0
 12 13  4  0  0  0  0
 13 14  4  0  0  0  0
M  END
>  <pdb_header>
COMPND    XX01ZVNS2B-x0884_B_301_XX01ZVNS2B-x1291+B+301+1


$$$$
Zx0884b
  PyMOL3.0          3D                             0

 28 28  0  0  0  0  0  0  0  0999 V2000
   -6.6910    4.5820  -21.0460 N   0  0  0  0  0  0  0  0  0  0  0  0
   -3.7900    4.8730  -17.2430 C   0  0  0  0  0  0  0  0  0  0  0  0
   -6.0080    5.4650  -17.7780 O   0  0  0  0  0  0  0  0  0  0  0  0
   -5.1100    5.3420  -16.6730 C   0  0  0  0  0  0  0  0  0  0  0  0
   -5.6560    7.7120  -16.4470 N   0  0  0  0  0  0  0  0  0  0  0  0
   -4.1330    6.7990  -15.0570 O   0  0  0  0  0  0  0  0  0  0  0  0
   -7.3120    5.0620  -17.6200 C   0  0  0  0  0  0  0  0  0  0  0  0
   -8.0050    5.0510  -16.4170 C   0  0  0  0  0  0  0  0  0  0  0  0
   -9.3460    4.7060  -16.3950 C   0  0  0  0  0  0  0  0  0  0  0  0
  -10.0050    4.3910  -17.5630 C   0  0  0  0  0  0  0  0  0  0  0  0
   -9.3290    4.3960  -18.7670 C   0  0  0  0  0  0  0  0  0  0  0  0
   -7.9700    4.7100  -18.8060 C   0  0  0  0  0  0  0  0  0  0  0  0
   -7.2380    4.6440  -20.0440 C   0  0  0  0  0  0  0  0  0  0  0  0
   -4.9380    6.6970  -15.9880 C   0  0  0  0  0  0  0  0  0  0  0  0
  -12.8830   -6.7470   -9.0570 N   0  0  0  0  0  0  0  0  0  0  0  0
  -13.3430  -11.6130   -9.0290 C   0  0  0  0  0  0  0  0  0  0  0  0
  -12.9190   -9.8720   -7.4250 O   0  0  0  0  0  0  0  0  0  0  0  0
  -12.4000  -10.5050   -8.5990 C   0  0  0  0  0  0  0  0  0  0  0  0
  -10.1120  -10.1740   -7.8180 N   0  0  0  0  0  0  0  0  0  0  0  0
  -10.7550  -12.2380   -8.4520 O   0  0  0  0  0  0  0  0  0  0  0  0
  -14.2560   -9.5230   -7.3780 C   0  0  0  0  0  0  0  0  0  0  0  0
  -15.2100  -10.2850   -6.7130 C   0  0  0  0  0  0  0  0  0  0  0  0
  -16.5380   -9.8890   -6.7140 C   0  0  0  0  0  0  0  0  0  0  0  0
  -16.9210   -8.7360   -7.3640 C   0  0  0  0  0  0  0  0  0  0  0  0
  -15.9800   -7.9510   -8.0080 C   0  0  0  0  0  0  0  0  0  0  0  0
  -14.6370   -8.3290   -8.0150 C   0  0  0  0  0  0  0  0  0  0  0  0
  -13.6430   -7.4610   -8.5920 C   0  0  0  0  0  0  0  0  0  0  0  0
  -11.0030  -11.0400   -8.2770 C   0  0  0  0  0  0  0  0  0  0  0  0
  3  7  1  0  0  0  0
  2  4  1  0  0  0  0
  3  4  1  0  0  0  0
  6 14  2  0  0  0  0
  7  8  4  0  0  0  0
  7 12  4  0  0  0  0
  8  9  4  0  0  0  0
  9 10  4  0  0  0  0
 10 11  4  0  0  0  0
 11 12  4  0  0  0  0
 12 13  1  0  0  0  0
  1 13  3  0  0  0  0
  4 14  1  0  0  0  0
  5 14  1  0  0  0  0
 17 21  1  0  0  0  0
 16 18  1  0  0  0  0
 17 18  1  0  0  0  0
 20 28  2  0  0  0  0
 21 22  4  0  0  0  0
 21 26  4  0  0  0  0
 22 23  4  0  0  0  0
 23 24  4  0  0  0  0
 24 25  4  0  0  0  0
 25 26  4  0  0  0  0
 26 27  1  0  0  0  0
 15 27  3  0  0  0  0
 18 28  1  0  0  0  0
 19 28  1  0  0  0  0
M  END
>  <pdb_header>
HEADER    ----                                    18-MAY-23                     
TITLE     ---                                                                   
EXPDTA    X-RAY DIFFRACTION                                                     
REMARK --------------------- added by autoBUSTER ---------------------------------START
REMARK run at   = Fri Sep 29 18:28:36 BST 2023
REMARK     in   = /dls/labxchem/data/lb32627/lb32627-65/processing/analysis/model_building/XX01ZVNS2B-x0884
REMARK     user = kyf22269
REMARK     cmd  = \
REMARK            /dls_sw/apps/GPhL/BUSTER/20230726/autoBUSTER/bin/linux64/refine \
REMARK            -p \
REMARK            /dls/labxchem/data/lb32627/lb32627-65/processing/analysis/model_building/XX01ZVNS2B-x0884/cootOut/Refi
REMARK            -m \
REMARK            /dls/labxchem/data/lb32627/lb32627-65/processing/analysis/model_building/XX01ZVNS2B-x0884/XX01ZVNS2B-x
REMARK            -l \
REMARK            /dls/labxchem/data/lb32627/lb32627-65/processing/analysis/model_building/XX01ZVNS2B-x0884/Z18769001.ci
REMARK            -autoncs -M TLSbasic -d Refine_6
REMARK Files used:
REMARK   PDB              = Refine_6/pdbchk.pdb
REMARK   MTZ              = /dls/labxchem/data/lb32627/lb32627-65/processing/analysis/model_building/XX01ZVNS2B-x0884/XX
REMARK output written to subdirectory = Refine_6
REMARK best refinement for F,SIGF with R/Rfree 0.2291/0.2672
REMARK header records are copied from input PDB file (apart from REMARK 3!)
REMARK --------------------- added by autoBUSTER -----------------------------------END
REMARK --------------------- added by autoBUSTER -------------------------------
REMARK run at   = Thu Jun 15 21:32:14 BST 2023                                  
REMARK     in   = /dls/labxchem/data/lb32627/lb32627-65/processing/analysis/mode
REMARK     user = xau79897                                                      
REMARK     cmd  = \                                                             
REMARK            /dls_sw/apps/GPhL/BUSTER/20230614/autoBUSTER/bin/linux64/refin
REMARK            -p \                                                          
REMARK            /dls/labxchem/data/lb32627/lb32627-65/processing/analysis/mode
REMARK            -m \                                                          
REMARK            /dls/labxchem/data/lb32627/lb32627-65/processing/analysis/mode
REMARK            -l \                                                          
REMARK            /dls/labxchem/data/lb32627/lb32627-65/processing/analysis/mode
REMARK            -autoncs -M TLSbasic -WAT -B user -Gelly gelly.dat \          
REMARK            StopOnGellySanityCheckError=no -d Refine_5                    
REMARK Files used:                                                              
REMARK   PDB              = Refine_5/pdbchk.pdb                                 
REMARK   MTZ              = /dls/labxchem/data/lb32627/lb32627-65/processing/ana
REMARK   Gelly commands       = /dls/labxchem/data/lb32627/lb32627-65/processing
REMARK output written to subdirectory = Refine_5                                
REMARK best refinement for F,SIGF with R/Rfree 0.2299/0.2657                    
REMARK header records are copied from input PDB file (apart from REMARK 3!)     
REMARK --------------------- added by autoBUSTER -------------------------------
REMARK --------------------- added by autoBUSTER -------------------------------
REMARK run at   = Tue May 30 16:18:19 BST 2023                                  
REMARK     in   = /dls/labxchem/data/lb32627/lb32627-65/processing/analysis/mode
REMARK     user = xau79897                                                      
REMARK     cmd  = \                                                             
REMARK            /dls_sw/apps/GPhL/BUSTER/20230217/autoBUSTER/bin/linux64/refin
REMARK            -p \                                                          
REMARK            /dls/labxchem/data/lb32627/lb32627-65/processing/analysis/mode
REMARK            -m \                                                          
REMARK            /dls/labxchem/data/lb32627/lb32627-65/processing/analysis/mode
REMARK            -l \                                                          
REMARK            /dls/labxchem/data/lb32627/lb32627-65/processing/analysis/mode
REMARK            -autoncs -M TLSbasic -WAT -B user -Gelly gelly.dat \          
REMARK            StopOnGellySanityCheckError=no -d Refine_4                    
REMARK Files used:                                                              
REMARK   PDB              = Refine_4/pdbchk.pdb                                 
REMARK   MTZ              = /dls/labxchem/data/lb32627/lb32627-65/processing/ana
REMARK   Gelly commands       = /dls/labxchem/data/lb32627/lb32627-65/processing
REMARK output written to subdirectory = Refine_4                                
REMARK best refinement for F,SIGF with R/Rfree 0.2325/0.2722                    
REMARK header records are copied from input PDB file (apart from REMARK 3!)     
REMARK --------------------- added by autoBUSTER -------------------------------
REMARK --------------------- added by autoBUSTER -------------------------------
REMARK run at   = Tue May 23 17:17:40 BST 2023                                  
REMARK     in   = /dls/labxchem/data/lb32627/lb32627-65/processing/analysis/mode
REMARK     user = xau79897                                                      
REMARK     cmd  = \                                                             
REMARK            /dls_sw/apps/GPhL/BUSTER/20230217/autoBUSTER/bin/linux64/refin
REMARK            -p \                                                          
REMARK            /dls/labxchem/data/lb32627/lb32627-65/processing/analysis/mode
REMARK            -m \                                                          
REMARK            /dls/labxchem/data/lb32627/lb32627-65/processing/analysis/mode
REMARK            -l \                                                          
REMARK            /dls/labxchem/data/lb32627/lb32627-65/processing/analysis/mode
REMARK            -autoncs -M TLSbasic -d Refine_3                              
REMARK Files used:                                                              
REMARK   PDB              = Refine_3/pdbchk.pdb                                 
REMARK   MTZ              = /dls/labxchem/data/lb32627/lb32627-65/processing/ana
REMARK output written to subdirectory = Refine_3                                
REMARK best refinement for F,SIGF with R/Rfree 0.2394/0.2670                    
REMARK header records are copied from input PDB file (apart from REMARK 3!)     
REMARK --------------------- added by autoBUSTER -------------------------------
REMARK   2                                                            
REMARK   2 RESOLUTION.    1.59 ANGSTROMS.
REMARK   3
REMARK   3 REFINEMENT.
REMARK   3   PROGRAM     : BUSTER 2.10.4 (26-JUL-2023)
REMARK   3   AUTHORS     : BRICOGNE,BLANC,BRANDL,FLENSBURG,KELLER,
REMARK   3               : PACIOREK,ROVERSI,SHARFF,SMART,VONRHEIN,WOMACK;
REMARK   3               : MATTHEWS,TEN EYCK,TRONRUD
REMARK   3
REMARK   3  DATA USED IN REFINEMENT.
REMARK   3   RESOLUTION RANGE HIGH (ANGSTROMS) : 1.595
REMARK   3   RESOLUTION RANGE LOW  (ANGSTROMS) : 24.73
REMARK   3   DATA CUTOFF            (SIGMA(F)) : 0.000
REMARK   3   COMPLETENESS FOR RANGE        (%) : 88.3
REMARK   3   NUMBER OF REFLECTIONS             : 24631
REMARK   3
REMARK   3  FIT TO DATA USED IN REFINEMENT.
REMARK   3   CROSS-VALIDATION METHOD          : THROUGHOUT
REMARK   3   FREE R VALUE TEST SET SELECTION  : RANDOM
REMARK   3   R VALUE     (WORKING + TEST SET) : 0.2310
REMARK   3   R VALUE            (WORKING SET) : 0.2291
REMARK   3   FREE R VALUE                     : 0.2672
REMARK   3   FREE R VALUE TEST SET SIZE   (%) : 5.130
REMARK   3   FREE R VALUE TEST SET COUNT      : 1264
REMARK   3   ESTIMATED ERROR OF FREE R VALUE  : NULL
REMARK   3
REMARK   3  FIT IN THE HIGHEST RESOLUTION BIN.
REMARK   3   TOTAL NUMBER OF BINS USED           : 51
REMARK   3   BIN RESOLUTION RANGE HIGH       (A) : 1.59
REMARK   3   BIN RESOLUTION RANGE LOW        (A) : 1.66
REMARK   3   BIN COMPLETENESS (WORKING+TEST) (%) : 17.12
REMARK   3   REFLECTIONS IN BIN   (WORKING+TEST) : 493
REMARK   3   BIN R VALUE          (WORKING+TEST) : 0.5723
REMARK   3   REFLECTIONS IN BIN    (WORKING SET) : 469
REMARK   3   BIN R VALUE           (WORKING SET) : 0.5752
REMARK   3   BIN FREE R VALUE                    : 0.5095
REMARK   3   BIN FREE R VALUE TEST SET SIZE  (%) : 4.87
REMARK   3   BIN FREE R VALUE TEST SET COUNT     : 24
REMARK   3   ESTIMATED ERROR OF BIN FREE R VALUE : NULL
REMARK   3
REMARK   3  NUMBER OF NON-HYDROGEN ATOMS USED IN REFINEMENT.
REMARK   3   PROTEIN ATOMS            : 1476
REMARK   3   NUCLEIC ACID ATOMS       : 0
REMARK   3   HETEROGEN ATOMS          : 36
REMARK   3   SOLVENT ATOMS            : 126
REMARK   3
REMARK   3  B VALUES.
REMARK   3   FROM WILSON PLOT           (A**2) : 29.37
REMARK   3   MEAN B VALUE      (OVERALL, A**2) : 44.19
REMARK   3   OVERALL ANISOTROPIC B VALUE.
REMARK   3    B11 (A**2) : -6.39690
REMARK   3    B22 (A**2) : -6.39690
REMARK   3    B33 (A**2) : 12.79380
REMARK   3    B12 (A**2) : 0.00000
REMARK   3    B13 (A**2) : 0.00000
REMARK   3    B23 (A**2) : 0.00000
REMARK   3
REMARK   3  ESTIMATED COORDINATE ERROR.
REMARK   3   ESD FROM LUZZATI PLOT                    (A) : 0.34
REMARK   3   DPI (BLOW EQ-10) BASED ON R VALUE        (A) : 0.128
REMARK   3   DPI (BLOW EQ-9) BASED ON FREE R VALUE    (A) : 0.123
REMARK   3   DPI (CRUICKSHANK) BASED ON R VALUE       (A) : 0.119
REMARK   3   DPI (CRUICKSHANK) BASED ON FREE R VALUE  (A) : 0.118
REMARK   3
REMARK   3   REFERENCES: BLOW, D. (2002) ACTA CRYST D58, 792-797
REMARK   3               CRUICKSHANK, D.W.J. (1999) ACTA CRYST D55, 583-601
REMARK   3
REMARK   3  CORRELATION COEFFICIENTS.
REMARK   3   CORRELATION COEFFICIENT FO-FC      : 0.944
REMARK   3   CORRELATION COEFFICIENT FO-FC FREE : 0.933
REMARK   3
REMARK   3  X-RAY WEIGHT : 7.31
REMARK   3
REMARK   3  GEOMETRY FUNCTION.                                                  
REMARK   3   RESTRAINT LIBRARIES.                                               
REMARK   3    NUMBER OF LIBRARIES USED :   9                                    
REMARK   3    LIBRARY  1 : protgeo_eh99.dat (V1.6.4.20) 20220523  STANDARD      
REMARK   3                 AMINO ACID DICTIONARY. BONDS AND ANGLES FROM         
REMARK   3                 ENGH AND HUBER EH99. OTHER VALUES BASED ON           
REMARK   3                 PREVIOUS TNT OR TAKEN FROM CCP4. INCLUDES            
REMARK   3                 HYDROGEN ATOMS.                                      
REMARK   3    LIBRARY  2 : exoticaa.dat (V1.3.4.16) 20220523  COLLECTION        
REMARK   3                 OF NON-STANDARD AMINO ACIDS, MAINLY EH91             
REMARK   3                 WITHOUT IDEAL DISTANCE INFO                          
REMARK   3    LIBRARY  3 : nuclgeo.dat (V1.13.4.9) 20221011                     
REMARK   3    LIBRARY  4 : bcorrel.dat (V1.15.10.2) 20190616                    
REMARK   3    LIBRARY  5 : contact.dat (V1.15.12.10) 20191121                   
REMARK   3    LIBRARY  6 : idealdist_contact.dat (V1.3.4.14) 20230724           
REMARK   3                 IDEAL-DISTANCE CONTACT TERM DATA AS USED IN          
REMARK   3                 PROLSQ. VALUES USED HERE ARE BASEd ON DATA           
REMARK   3                 HARVESTING OF PDB AS OF 20190109                     
REMARK   3    LIBRARY  7 : restraints for LIG (unknown) from cif                
REMARK   3                 dictionary Z18769001.cif; generated by GRADE         
REMARK   3                 1.2.21 (Feb 03 2022) from SMILES CC(Oc1ccccc1C       
REMARK   3    LIBRARY  8 : restraints for DMS (DIMETHYL SULFOXIDE) from         
REMARK   3                 cif dictionary DMS.cif; generated by grade2          
REMARK   3                 version 1.1.0a7 from                                 
REMARK   3                 PDB_chemical_components_definition_file              
REMARK   3                 ftp://ftp.ebi.ac.uk/pub/databases/msd/pdbechem_v     
REMARK   3                 2/D/DMS/DMS.cif using RDKit 2021.03.4                
REMARK   3                 ((DatabaseID PDB-DMS))                               
REMARK   3    LIBRARY  9 : assume.dat (V1.9.4.3) 20221011                       
REMARK   3                                                                      
REMARK   3   NUMBER OF GEOMETRIC FUNCTION TERMS DEFINED : 15                    
REMARK   3   TERM                          COUNT    WEIGHT   FUNCTION.          
REMARK   3    BOND LENGTHS              :   1661 ;   2.00 ;  HARMONIC           
REMARK   3    BOND ANGLES               :   2272 ;   2.00 ;  HARMONIC           
REMARK   3    TORSION ANGLES            :    561 ;   2.00 ;  SINUSOIDAL         
REMARK   3    TRIGONAL CARBON PLANES    :   NULL ;   NULL ;  NULL               
REMARK   3    GENERAL PLANES            :    304 ;   5.00 ;  HARMONIC           
REMARK   3    ISOTROPIC THERMAL FACTORS :   1661 ;  10.00 ;  HARMONIC           
REMARK   3    BAD NON-BONDED CONTACTS   :   NULL ;   NULL ;  NULL               
REMARK   3    IMPROPER TORSIONS         :   NULL ;   NULL ;  NULL               
REMARK   3    PSEUDOROTATION ANGLES     :   NULL ;   NULL ;  NULL               
REMARK   3    CHIRAL IMPROPER TORSION   :    204 ;   5.00 ;  SEMIHARMONIC       
REMARK   3    SUM OF OCCUPANCIES        :   NULL ;   NULL ;  NULL               
REMARK   3    UTILITY DISTANCES         :   NULL ;   NULL ;  NULL               
REMARK   3    UTILITY ANGLES            :   NULL ;   NULL ;  NULL               
REMARK   3    UTILITY TORSION           :   NULL ;   NULL ;  NULL               
REMARK   3    IDEAL-DIST CONTACT TERM   :   1351 ;   4.00 ;  SEMIHARMONIC       
REMARK   3                                                                      
REMARK   3   RMS DEVIATIONS FROM IDEAL VALUES.                                  
REMARK   3   BOND LENGTHS                       (A) : 0.010                     
REMARK   3   BOND ANGLES                  (DEGREES) : 1.03                      
REMARK   3   PEPTIDE OMEGA TORSION ANGLES (DEGREES) : 3.75                      
REMARK   3   OTHER TORSION ANGLES         (DEGREES) : 16.38                     
REMARK   3                                                                      
REMARK   3   SIMILARITY.                                                        
REMARK   3    NCS.                                                              
REMARK   3     NCS METHOD: NONE                                                 
REMARK   3    TARGET RESTRAINTS.                                                
REMARK   3     TARGET REPRESENTATION : NONE                                     
REMARK   3     TARGET STRUCTURE : NULL                                          
REMARK   3                                                                      
REMARK   3  TLS DETAILS.                                                        
REMARK   3   NUMBER OF TLS GROUPS  :            2                               
REMARK   3                                                                      
REMARK   3   TLS GROUP :            1                                           
REMARK   3    SET : { A|* }                                                     
REMARK   3    ORIGIN FOR THE GROUP (A):  -13.5095   -1.5422  -19.2667           
REMARK   3    T TENSOR                                                          
REMARK   3     T11:   -0.0722 T22:   -0.0366                                    
REMARK   3     T33:   -0.1151 T12:    0.0863                                    
REMARK   3     T13:    0.0731 T23:    0.0713                                    
REMARK   3    L TENSOR                                                          
REMARK   3     L11:    2.6950 L22:    2.9018                                    
REMARK   3     L33:    3.7070 L12:   -1.6623                                    
REMARK   3     L13:    0.6815 L23:    0.7088                                    
REMARK   3    S TENSOR                                                          
REMARK   3     S11:    0.4116 S12:    0.3183 S13:    0.2329                     
REMARK   3     S21:   -0.3833 S22:   -0.2961 S23:   -0.2199                     
REMARK   3     S31:    0.0174 S32:    0.4678 S33:   -0.1155                     
REMARK   3                                                                      
REMARK   3   TLS GROUP :            2                                           
REMARK   3    SET : { B|* }                                                     
REMARK   3    ORIGIN FOR THE GROUP (A):  -18.2258    0.9671  -15.5169           
REMARK   3    T TENSOR                                                          
REMARK   3     T11:    0.0350 T22:   -0.0254                                    
REMARK   3     T33:    0.0044 T12:    0.0927                                    
REMARK   3     T13:    0.0237 T23:    0.0239                                    
REMARK   3    L TENSOR                                                          
REMARK   3     L11:    1.0758 L22:    0.7434                                    
REMARK   3     L33:    2.0589 L12:   -0.7203                                    
REMARK   3     L13:    0.4181 L23:    0.0123                                    
REMARK   3    S TENSOR                                                          
REMARK   3     S11:    0.2266 S12:    0.1172 S13:    0.0599                     
REMARK   3     S21:   -0.0517 S22:   -0.2069 S23:    0.0687                     
REMARK   3     S31:    0.0501 S32:    0.1490 S33:   -0.0197                     
REMARK   3                                                                      
REMARK   3  REFINEMENT NOTES.                                                   
REMARK   3   NUMBER OF REFINEMENT NOTES :   1                                   
REMARK   3   NOTE   1 : IDEAL-DIST CONTACT TERM CONTACT SETUP. ALL ATOMS        
REMARK   3               HAVE CCP4 ATOM TYPE FROM LIBRARY                       
REMARK   3
REMARK   3  OTHER REFINEMENT REMARKS: NULL
REMARK   3
REMARK 290                                                            
REMARK 290 CRYSTALLOGRAPHIC SYMMETRY                                  
REMARK 290 SYMMETRY OPERATORS FOR SPACE GROUP: P 43 2 2               
REMARK 290                                                            
REMARK 290      SYMOP   SYMMETRY                                      
REMARK 290     NNNMMM   OPERATOR                                      
REMARK 290       1555   X,Y,Z                                         
REMARK 290       2555   -X,-Y,1/2+Z                                   
REMARK 290       3555   -Y,X,3/4+Z                                    
REMARK 290       4555   Y,-X,1/4+Z                                    
REMARK 290       5555   -X,Y,-Z                                       
REMARK 290       6555   X,-Y,1/2-Z                                    
REMARK 290       7555   Y,X,1/4-Z                                     
REMARK 290       8555   -Y,-X,3/4-Z                                   
REMARK 290                                                            
REMARK 290     WHERE NNN -> OPERATOR NUMBER                           
REMARK 290           MMM -> TRANSLATION VECTOR                        
REMARK 290                                                            
REMARK 290 CRYSTALLOGRAPHIC SYMMETRY TRANSFORMATIONS                  
REMARK 290 THE FOLLOWING TRANSFORMATIONS OPERATE ON THE ATOM/HETATM   
REMARK 290 RECORDS IN THIS ENTRY TO PRODUCE CRYSTALLOGRAPHICALLY      
REMARK 290 RELATED MOLECULES.                                         
REMARK 290   SMTRY1   1  1.000000  0.000000  0.000000        0.00000
REMARK 290   SMTRY2   1  0.000000  1.000000  0.000000        0.00000
REMARK 290   SMTRY3   1  0.000000  0.000000  1.000000        0.00000
REMARK 290   SMTRY1   2 -1.000000  0.000000  0.000000        0.00000
REMARK 290   SMTRY2   2  0.000000 -1.000000  0.000000        0.00000
REMARK 290   SMTRY3   2  0.000000  0.000000  1.000000      108.35750
REMARK 290   SMTRY1   3  0.000000 -1.000000  0.000000        0.00000
REMARK 290   SMTRY2   3  1.000000  0.000000  0.000000        0.00000
REMARK 290   SMTRY3   3  0.000000  0.000000  1.000000      162.53625
REMARK 290   SMTRY1   4  0.000000  1.000000  0.000000        0.00000
REMARK 290   SMTRY2   4 -1.000000  0.000000  0.000000        0.00000
REMARK 290   SMTRY3   4  0.000000  0.000000  1.000000       54.17875
REMARK 290   SMTRY1   5 -1.000000  0.000000  0.000000        0.00000
REMARK 290   SMTRY2   5  0.000000  1.000000  0.000000        0.00000
REMARK 290   SMTRY3   5  0.000000  0.000000 -1.000000        0.00000
REMARK 290   SMTRY1   6  1.000000  0.000000  0.000000        0.00000
REMARK 290   SMTRY2   6  0.000000 -1.000000  0.000000        0.00000
REMARK 290   SMTRY3   6  0.000000  0.000000 -1.000000      108.35750
REMARK 290   SMTRY1   7  0.000000  1.000000  0.000000        0.00000
REMARK 290   SMTRY2   7  1.000000  0.000000  0.000000        0.00000
REMARK 290   SMTRY3   7  0.000000  0.000000 -1.000000       54.17875
REMARK 290   SMTRY1   8  0.000000 -1.000000  0.000000        0.00000
REMARK 290   SMTRY2   8 -1.000000  0.000000  0.000000        0.00000
REMARK 290   SMTRY3   8  0.000000  0.000000 -1.000000      162.53625
REMARK 290                                                            
REMARK 290 REMARK: NULL                                               
CRYST1   42.596   42.596  216.715  90.00  90.00  90.00 P 43 2 2                 


$$$$
Zx0884b_ligand
  PyMOL3.0          3D                             0

 14 14  0  0  0  0  0  0  0  0999 V2000
  -11.0030  -11.0400   -8.2770 C   0  0  0  0  0  0  0  0  0  0  0  0
  -10.1120  -10.1740   -7.8180 N   0  0  0  0  0  0  0  0  0  0  0  0
  -10.7550  -12.2380   -8.4520 O   0  0  0  0  0  0  0  0  0  0  0  0
  -12.4000  -10.5050   -8.5990 C   0  0  0  0  0  0  0  0  0  0  0  0
  -12.8830   -6.7470   -9.0570 N   0  0  0  0  0  0  0  0  0  0  0  0
  -12.9190   -9.8720   -7.4250 O   0  0  0  0  0  0  0  0  0  0  0  0
  -13.3430  -11.6130   -9.0290 C   0  0  0  0  0  0  0  0  0  0  0  0
  -14.2560   -9.5230   -7.3780 C   0  0  0  0  0  0  0  0  0  0  0  0
  -14.6370   -8.3290   -8.0150 C   0  0  0  0  0  0  0  0  0  0  0  0
  -13.6430   -7.4610   -8.5920 C   0  0  0  0  0  0  0  0  0  0  0  0
  -15.9800   -7.9510   -8.0080 C   0  0  0  0  0  0  0  0  0  0  0  0
  -16.9210   -8.7360   -7.3640 C   0  0  0  0  0  0  0  0  0  0  0  0
  -16.5380   -9.8890   -6.7140 C   0  0  0  0  0  0  0  0  0  0  0  0
  -15.2100  -10.2850   -6.7130 C   0  0  0  0  0  0  0  0  0  0  0  0
  1  2  1  0  0  0  0
  1  4  1  0  0  0  0
  1  3  2  0  0  0  0
  4  6  1  0  0  0  0
  4  7  1  0  0  0  0
  6  8  1  0  0  0  0
  8  9  4  0  0  0  0
  8 14  4  0  0  0  0
  9 10  1  0  0  0  0
  9 11  4  0  0  0  0
  5 10  3  0  0  0  0
 11 12  4  0  0  0  0
 12 13  4  0  0  0  0
 13 14  4  0  0  0  0
M  END
>  <pdb_header>
COMPND    XX01ZVNS2B-x0884_B_401_XX01ZVNS2B-x0777+B+301+1


$$$$
Zx0904a
  PyMOL3.0          3D                             0

 14 14  0  0  0  0  0  0  0  0999 V2000
   -3.4690    4.9720  -21.3090 N   0  0  0  0  0  0  0  0  0  0  0  0
   -4.1640    4.7630  -22.5820 C   0  0  0  0  0  0  0  0  0  0  0  0
   -3.4850    4.2950  -19.1720 O   0  0  0  0  0  0  0  0  0  0  0  0
   -2.0790    5.3880  -21.4180 C   0  0  0  0  0  0  0  0  0  0  0  0
   -5.8340    5.3040  -18.5310 O   0  0  0  0  0  0  0  0  0  0  0  0
   -4.0560    4.8360  -20.1060 C   0  0  0  0  0  0  0  0  0  0  0  0
   -5.4480    5.4110  -19.9090 C   0  0  0  0  0  0  0  0  0  0  0  0
   -7.1380    5.0090  -18.2000 C   0  0  0  0  0  0  0  0  0  0  0  0
   -8.0270    4.5050  -19.1340 C   0  0  0  0  0  0  0  0  0  0  0  0
   -9.3310    4.2230  -18.7590 C   0  0  0  0  0  0  0  0  0  0  0  0
   -9.7350    4.3940  -17.4550 C   0  0  0  0  0  0  0  0  0  0  0  0
   -8.8180    4.8450  -16.5520 C   0  0  0  0  0  0  0  0  0  0  0  0
   -7.5280    5.1940  -16.8840 C   0  0  0  0  0  0  0  0  0  0  0  0
   -9.1710    4.8660  -15.2390 F   0  0  0  0  0  0  0  0  0  0  0  0
  1  2  1  0  0  0  0
  1  4  1  0  0  0  0
  5  7  1  0  0  0  0
  1  6  1  0  0  0  0
  3  6  2  0  0  0  0
  6  7  1  0  0  0  0
  5  8  1  0  0  0  0
  8  9  4  0  0  0  0
  9 10  4  0  0  0  0
 10 11  4  0  0  0  0
 11 12  4  0  0  0  0
 12 13  4  0  0  0  0
  8 13  4  0  0  0  0
 12 14  1  0  0  0  0
M  END
>  <pdb_header>
HEADER    ----                                    18-MAY-23                     
TITLE     ---                                                                   
EXPDTA    X-RAY DIFFRACTION                                                     
REMARK --------------------- added by autoBUSTER ---------------------------------START
REMARK run at   = Fri Sep 29 18:30:07 BST 2023
REMARK     in   = /dls/labxchem/data/lb32627/lb32627-65/processing/analysis/model_building/XX01ZVNS2B-x0904
REMARK     user = kyf22269
REMARK     cmd  = \
REMARK            /dls_sw/apps/GPhL/BUSTER/20230726/autoBUSTER/bin/linux64/refine \
REMARK            -p \
REMARK            /dls/labxchem/data/lb32627/lb32627-65/processing/analysis/model_building/XX01ZVNS2B-x0904/cootOut/Refi
REMARK            -m \
REMARK            /dls/labxchem/data/lb32627/lb32627-65/processing/analysis/model_building/XX01ZVNS2B-x0904/XX01ZVNS2B-x
REMARK            -l \
REMARK            /dls/labxchem/data/lb32627/lb32627-65/processing/analysis/model_building/XX01ZVNS2B-x0904/Z19755216.ci
REMARK            -autoncs -M TLSbasic -d Refine_7
REMARK Files used:
REMARK   PDB              = Refine_7/pdbchk.pdb
REMARK   MTZ              = /dls/labxchem/data/lb32627/lb32627-65/processing/analysis/model_building/XX01ZVNS2B-x0904/XX
REMARK output written to subdirectory = Refine_7
REMARK best refinement for F,SIGF with R/Rfree 0.2207/0.2380
REMARK header records are copied from input PDB file (apart from REMARK 3!)
REMARK --------------------- added by autoBUSTER -----------------------------------END
REMARK --------------------- added by autoBUSTER -------------------------------
REMARK run at   = Thu Jun 15 14:26:26 BST 2023                                  
REMARK     in   = /dls/labxchem/data/lb32627/lb32627-65/processing/analysis/mode
REMARK     user = xau79897                                                      
REMARK     cmd  = \                                                             
REMARK            /dls_sw/apps/GPhL/BUSTER/20230614/autoBUSTER/bin/linux64/refin
REMARK            -p \                                                          
REMARK            /dls/labxchem/data/lb32627/lb32627-65/processing/analysis/mode
REMARK            -m \                                                          
REMARK            /dls/labxchem/data/lb32627/lb32627-65/processing/analysis/mode
REMARK            -l \                                                          
REMARK            /dls/labxchem/data/lb32627/lb32627-65/processing/analysis/mode
REMARK            -autoncs -M TLSbasic -WAT -B user -Gelly gelly.dat \          
REMARK            StopOnGellySanityCheckError=no -d Refine_6                    
REMARK Files used:                                                              
REMARK   PDB              = Refine_6/pdbchk.pdb                                 
REMARK   MTZ              = /dls/labxchem/data/lb32627/lb32627-65/processing/ana
REMARK   Gelly commands       = /dls/labxchem/data/lb32627/lb32627-65/processing
REMARK output written to subdirectory = Refine_6                                
REMARK best refinement for F,SIGF with R/Rfree 0.2207/0.2377                    
REMARK header records are copied from input PDB file (apart from REMARK 3!)     
REMARK --------------------- added by autoBUSTER -------------------------------
REMARK --------------------- added by autoBUSTER -------------------------------
REMARK run at   = Mon May 29 13:13:53 BST 2023                                  
REMARK     in   = /dls/labxchem/data/lb32627/lb32627-65/processing/analysis/mode
REMARK     user = xau79897                                                      
REMARK     cmd  = \                                                             
REMARK            /dls_sw/apps/GPhL/BUSTER/20230217/autoBUSTER/bin/linux64/refin
REMARK            -p \                                                          
REMARK            /dls/labxchem/data/lb32627/lb32627-65/processing/analysis/mode
REMARK            -m \                                                          
REMARK            /dls/labxchem/data/lb32627/lb32627-65/processing/analysis/mode
REMARK            -l \                                                          
REMARK            /dls/labxchem/data/lb32627/lb32627-65/processing/analysis/mode
REMARK            -autoncs -M TLSbasic -WAT -B user -Gelly gelly.dat \          
REMARK            StopOnGellySanityCheckError=no -d Refine_5                    
REMARK Files used:                                                              
REMARK   PDB              = Refine_5/pdbchk.pdb                                 
REMARK   MTZ              = /dls/labxchem/data/lb32627/lb32627-65/processing/ana
REMARK   Gelly commands       = /dls/labxchem/data/lb32627/lb32627-65/processing
REMARK output written to subdirectory = Refine_5                                
REMARK best refinement for F,SIGF with R/Rfree 0.2215/0.2359                    
REMARK header records are copied from input PDB file (apart from REMARK 3!)     
REMARK --------------------- added by autoBUSTER -------------------------------
REMARK --------------------- added by autoBUSTER -------------------------------
REMARK run at   = Tue May 23 17:17:24 BST 2023                                  
REMARK     in   = /dls/labxchem/data/lb32627/lb32627-65/processing/analysis/mode
REMARK     user = xau79897                                                      
REMARK     cmd  = \                                                             
REMARK            /dls_sw/apps/GPhL/BUSTER/20230217/autoBUSTER/bin/linux64/refin
REMARK            -p \                                                          
REMARK            /dls/labxchem/data/lb32627/lb32627-65/processing/analysis/mode
REMARK            -m \                                                          
REMARK            /dls/labxchem/data/lb32627/lb32627-65/processing/analysis/mode
REMARK            -l \                                                          
REMARK            /dls/labxchem/data/lb32627/lb32627-65/processing/analysis/mode
REMARK            -autoncs -M TLSbasic -d Refine_4                              
REMARK Files used:                                                              
REMARK   PDB              = Refine_4/pdbchk.pdb                                 
REMARK   MTZ              = /dls/labxchem/data/lb32627/lb32627-65/processing/ana
REMARK output written to subdirectory = Refine_4                                
REMARK best refinement for F,SIGF with R/Rfree 0.2282/0.2415                    
REMARK header records are copied from input PDB file (apart from REMARK 3!)     
REMARK --------------------- added by autoBUSTER -------------------------------
REMARK   2                                                            
REMARK   2 RESOLUTION.    1.37 ANGSTROMS.
REMARK   3
REMARK   3 REFINEMENT.
REMARK   3   PROGRAM     : BUSTER 2.10.4 (26-JUL-2023)
REMARK   3   AUTHORS     : BRICOGNE,BLANC,BRANDL,FLENSBURG,KELLER,
REMARK   3               : PACIOREK,ROVERSI,SHARFF,SMART,VONRHEIN,WOMACK;
REMARK   3               : MATTHEWS,TEN EYCK,TRONRUD
REMARK   3
REMARK   3  DATA USED IN REFINEMENT.
REMARK   3   RESOLUTION RANGE HIGH (ANGSTROMS) : 1.366
REMARK   3   RESOLUTION RANGE LOW  (ANGSTROMS) : 19.77
REMARK   3   DATA CUTOFF            (SIGMA(F)) : 0.000
REMARK   3   COMPLETENESS FOR RANGE        (%) : 92.0
REMARK   3   NUMBER OF REFLECTIONS             : 40166
REMARK   3
REMARK   3  FIT TO DATA USED IN REFINEMENT.
REMARK   3   CROSS-VALIDATION METHOD          : THROUGHOUT
REMARK   3   FREE R VALUE TEST SET SELECTION  : RANDOM
REMARK   3   R VALUE     (WORKING + TEST SET) : 0.2216
REMARK   3   R VALUE            (WORKING SET) : 0.2207
REMARK   3   FREE R VALUE                     : 0.2380
REMARK   3   FREE R VALUE TEST SET SIZE   (%) : 5.080
REMARK   3   FREE R VALUE TEST SET COUNT      : 2039
REMARK   3   ESTIMATED ERROR OF FREE R VALUE  : NULL
REMARK   3
REMARK   3  FIT IN THE HIGHEST RESOLUTION BIN.
REMARK   3   TOTAL NUMBER OF BINS USED           : 51
REMARK   3   BIN RESOLUTION RANGE HIGH       (A) : 1.37
REMARK   3   BIN RESOLUTION RANGE LOW        (A) : 1.41
REMARK   3   BIN COMPLETENESS (WORKING+TEST) (%) : 20.02
REMARK   3   REFLECTIONS IN BIN   (WORKING+TEST) : 804
REMARK   3   BIN R VALUE          (WORKING+TEST) : 0.5278
REMARK   3   REFLECTIONS IN BIN    (WORKING SET) : 767
REMARK   3   BIN R VALUE           (WORKING SET) : 0.5242
REMARK   3   BIN FREE R VALUE                    : 0.6050
REMARK   3   BIN FREE R VALUE TEST SET SIZE  (%) : 4.60
REMARK   3   BIN FREE R VALUE TEST SET COUNT     : 37
REMARK   3   ESTIMATED ERROR OF BIN FREE R VALUE : NULL
REMARK   3
REMARK   3  NUMBER OF NON-HYDROGEN ATOMS USED IN REFINEMENT.
REMARK   3   PROTEIN ATOMS            : 1476
REMARK   3   NUCLEIC ACID ATOMS       : 0
REMARK   3   HETEROGEN ATOMS          : 22
REMARK   3   SOLVENT ATOMS            : 140
REMARK   3
REMARK   3  B VALUES.
REMARK   3   FROM WILSON PLOT           (A**2) : 28.83
REMARK   3   MEAN B VALUE      (OVERALL, A**2) : 41.47
REMARK   3   OVERALL ANISOTROPIC B VALUE.
REMARK   3    B11 (A**2) : -3.77650
REMARK   3    B22 (A**2) : -3.77650
REMARK   3    B33 (A**2) : 7.55300
REMARK   3    B12 (A**2) : 0.00000
REMARK   3    B13 (A**2) : 0.00000
REMARK   3    B23 (A**2) : 0.00000
REMARK   3
REMARK   3  ESTIMATED COORDINATE ERROR.
REMARK   3   ESD FROM LUZZATI PLOT                    (A) : 0.25
REMARK   3   DPI (BLOW EQ-10) BASED ON R VALUE        (A) : 0.074
REMARK   3   DPI (BLOW EQ-9) BASED ON FREE R VALUE    (A) : 0.072
REMARK   3   DPI (CRUICKSHANK) BASED ON R VALUE       (A) : 0.070
REMARK   3   DPI (CRUICKSHANK) BASED ON FREE R VALUE  (A) : 0.069
REMARK   3
REMARK   3   REFERENCES: BLOW, D. (2002) ACTA CRYST D58, 792-797
REMARK   3               CRUICKSHANK, D.W.J. (1999) ACTA CRYST D55, 583-601
REMARK   3
REMARK   3  CORRELATION COEFFICIENTS.
REMARK   3   CORRELATION COEFFICIENT FO-FC      : 0.955
REMARK   3   CORRELATION COEFFICIENT FO-FC FREE : 0.958
REMARK   3
REMARK   3  X-RAY WEIGHT : 6.00
REMARK   3
REMARK   3  GEOMETRY FUNCTION.                                                  
REMARK   3   RESTRAINT LIBRARIES.                                               
REMARK   3    NUMBER OF LIBRARIES USED :   9                                    
REMARK   3    LIBRARY  1 : protgeo_eh99.dat (V1.6.4.20) 20220523  STANDARD      
REMARK   3                 AMINO ACID DICTIONARY. BONDS AND ANGLES FROM         
REMARK   3                 ENGH AND HUBER EH99. OTHER VALUES BASED ON           
REMARK   3                 PREVIOUS TNT OR TAKEN FROM CCP4. INCLUDES            
REMARK   3                 HYDROGEN ATOMS.                                      
REMARK   3    LIBRARY  2 : exoticaa.dat (V1.3.4.16) 20220523  COLLECTION        
REMARK   3                 OF NON-STANDARD AMINO ACIDS, MAINLY EH91             
REMARK   3                 WITHOUT IDEAL DISTANCE INFO                          
REMARK   3    LIBRARY  3 : nuclgeo.dat (V1.13.4.9) 20221011                     
REMARK   3    LIBRARY  4 : bcorrel.dat (V1.15.10.2) 20190616                    
REMARK   3    LIBRARY  5 : contact.dat (V1.15.12.10) 20191121                   
REMARK   3    LIBRARY  6 : idealdist_contact.dat (V1.3.4.14) 20230724           
REMARK   3                 IDEAL-DISTANCE CONTACT TERM DATA AS USED IN          
REMARK   3                 PROLSQ. VALUES USED HERE ARE BASEd ON DATA           
REMARK   3                 HARVESTING OF PDB AS OF 20190109                     
REMARK   3    LIBRARY  7 : restraints for LIG (unknown) from cif                
REMARK   3                 dictionary Z19755216.cif; generated by GRADE         
REMARK   3                 1.2.21 (Feb 03 2022) from SMILES                     
REMARK   3                 CN(C)C(=O)COc1cccc(F)c1 using MOGUL                  
REMARK   3                 1.8.5(274361), CSD as541be, with quantum             
REMARK   3                 mechanics RM1                                        
REMARK   3    LIBRARY  8 : restraints for DMS (DIMETHYL SULFOXIDE) from         
REMARK   3                 cif dictionary DMS.cif; generated by grade2          
REMARK   3                 version 1.1.0a7 from                                 
REMARK   3                 PDB_chemical_components_definition_file              
REMARK   3                 ftp://ftp.ebi.ac.uk/pub/databases/msd/pdbechem_v     
REMARK   3                 2/D/DMS/DMS.cif using RDKit 2021.03.4                
REMARK   3                 ((DatabaseID PDB-DMS))                               
REMARK   3    LIBRARY  9 : assume.dat (V1.9.4.3) 20221011                       
REMARK   3                                                                      
REMARK   3   NUMBER OF GEOMETRIC FUNCTION TERMS DEFINED : 15                    
REMARK   3   TERM                          COUNT    WEIGHT   FUNCTION.          
REMARK   3    BOND LENGTHS              :   1600 ;   2.00 ;  HARMONIC           
REMARK   3    BOND ANGLES               :   2181 ;   2.00 ;  HARMONIC           
REMARK   3    TORSION ANGLES            :    538 ;   2.00 ;  SINUSOIDAL         
REMARK   3    TRIGONAL CARBON PLANES    :   NULL ;   NULL ;  NULL               
REMARK   3    GENERAL PLANES            :    282 ;   5.00 ;  HARMONIC           
REMARK   3    ISOTROPIC THERMAL FACTORS :   1600 ;  10.00 ;  HARMONIC           
REMARK   3    BAD NON-BONDED CONTACTS   :   NULL ;   NULL ;  NULL               
REMARK   3    IMPROPER TORSIONS         :   NULL ;   NULL ;  NULL               
REMARK   3    PSEUDOROTATION ANGLES     :   NULL ;   NULL ;  NULL               
REMARK   3    CHIRAL IMPROPER TORSION   :    197 ;   5.00 ;  SEMIHARMONIC       
REMARK   3    SUM OF OCCUPANCIES        :   NULL ;   NULL ;  NULL               
REMARK   3    UTILITY DISTANCES         :   NULL ;   NULL ;  NULL               
REMARK   3    UTILITY ANGLES            :   NULL ;   NULL ;  NULL               
REMARK   3    UTILITY TORSION           :   NULL ;   NULL ;  NULL               
REMARK   3    IDEAL-DIST CONTACT TERM   :   1345 ;   4.00 ;  SEMIHARMONIC       
REMARK   3                                                                      
REMARK   3   RMS DEVIATIONS FROM IDEAL VALUES.                                  
REMARK   3   BOND LENGTHS                       (A) : 0.012                     
REMARK   3   BOND ANGLES                  (DEGREES) : 1.13                      
REMARK   3   PEPTIDE OMEGA TORSION ANGLES (DEGREES) : 4.48                      
REMARK   3   OTHER TORSION ANGLES         (DEGREES) : 15.35                     
REMARK   3                                                                      
REMARK   3   SIMILARITY.                                                        
REMARK   3    NCS.                                                              
REMARK   3     NCS METHOD: NONE                                                 
REMARK   3    TARGET RESTRAINTS.                                                
REMARK   3     TARGET REPRESENTATION : NONE                                     
REMARK   3     TARGET STRUCTURE : NULL                                          
REMARK   3                                                                      
REMARK   3  TLS DETAILS.                                                        
REMARK   3   NUMBER OF TLS GROUPS  :            2                               
REMARK   3                                                                      
REMARK   3   TLS GROUP :            1                                           
REMARK   3    SET : { A|* }                                                     
REMARK   3    ORIGIN FOR THE GROUP (A):  -13.9537   -1.4112  -19.5033           
REMARK   3    T TENSOR                                                          
REMARK   3     T11:    0.0038 T22:   -0.0050                                    
REMARK   3     T33:   -0.1164 T12:    0.0978                                    
REMARK   3     T13:    0.0729 T23:    0.0447                                    
REMARK   3    L TENSOR                                                          
REMARK   3     L11:    2.0358 L22:    2.5237                                    
REMARK   3     L33:    2.3313 L12:   -1.3463                                    
REMARK   3     L13:    0.5976 L23:    0.2984                                    
REMARK   3    S TENSOR                                                          
REMARK   3     S11:    0.3399 S12:    0.2416 S13:    0.1741                     
REMARK   3     S21:   -0.4111 S22:   -0.2389 S23:   -0.1530                     
REMARK   3     S31:   -0.0236 S32:    0.3645 S33:   -0.1011                     
REMARK   3                                                                      
REMARK   3   TLS GROUP :            2                                           
REMARK   3    SET : { B|* }                                                     
REMARK   3    ORIGIN FOR THE GROUP (A):  -18.4778    1.2879  -15.4768           
REMARK   3    T TENSOR                                                          
REMARK   3     T11:    0.0579 T22:   -0.0019                                    
REMARK   3     T33:   -0.0274 T12:    0.0906                                    
REMARK   3     T13:    0.0228 T23:    0.0162                                    
REMARK   3    L TENSOR                                                          
REMARK   3     L11:    0.9537 L22:    1.1187                                    
REMARK   3     L33:    1.2849 L12:   -0.6707                                    
REMARK   3     L13:    0.4308 L23:   -0.0829                                    
REMARK   3    S TENSOR                                                          
REMARK   3     S11:    0.2096 S12:    0.0723 S13:    0.0393                     
REMARK   3     S21:   -0.1250 S22:   -0.1875 S23:    0.0392                     
REMARK   3     S31:   -0.0232 S32:    0.1370 S33:   -0.0221                     
REMARK   3                                                                      
REMARK   3  REFINEMENT NOTES.                                                   
REMARK   3   NUMBER OF REFINEMENT NOTES :   1                                   
REMARK   3   NOTE   1 : IDEAL-DIST CONTACT TERM CONTACT SETUP. ALL ATOMS        
REMARK   3               HAVE CCP4 ATOM TYPE FROM LIBRARY                       
REMARK   3
REMARK   3  OTHER REFINEMENT REMARKS: NULL
REMARK   3
REMARK 290                                                            
REMARK 290 CRYSTALLOGRAPHIC SYMMETRY                                  
REMARK 290 SYMMETRY OPERATORS FOR SPACE GROUP: P 43 2 2               
REMARK 290                                                            
REMARK 290      SYMOP   SYMMETRY                                      
REMARK 290     NNNMMM   OPERATOR                                      
REMARK 290       1555   X,Y,Z                                         
REMARK 290       2555   -X,-Y,1/2+Z                                   
REMARK 290       3555   -Y,X,3/4+Z                                    
REMARK 290       4555   Y,-X,1/4+Z                                    
REMARK 290       5555   -X,Y,-Z                                       
REMARK 290       6555   X,-Y,1/2-Z                                    
REMARK 290       7555   Y,X,1/4-Z                                     
REMARK 290       8555   -Y,-X,3/4-Z                                   
REMARK 290                                                            
REMARK 290     WHERE NNN -> OPERATOR NUMBER                           
REMARK 290           MMM -> TRANSLATION VECTOR                        
REMARK 290                                                            
REMARK 290 CRYSTALLOGRAPHIC SYMMETRY TRANSFORMATIONS                  
REMARK 290 THE FOLLOWING TRANSFORMATIONS OPERATE ON THE ATOM/HETATM   
REMARK 290 RECORDS IN THIS ENTRY TO PRODUCE CRYSTALLOGRAPHICALLY      
REMARK 290 RELATED MOLECULES.                                         
REMARK 290   SMTRY1   1  1.000000  0.000000  0.000000        0.00000
REMARK 290   SMTRY2   1  0.000000  1.000000  0.000000        0.00000
REMARK 290   SMTRY3   1  0.000000  0.000000  1.000000        0.00000
REMARK 290   SMTRY1   2 -1.000000  0.000000  0.000000        0.00000
REMARK 290   SMTRY2   2  0.000000 -1.000000  0.000000        0.00000
REMARK 290   SMTRY3   2  0.000000  0.000000  1.000000      108.70050
REMARK 290   SMTRY1   3  0.000000 -1.000000  0.000000        0.00000
REMARK 290   SMTRY2   3  1.000000  0.000000  0.000000        0.00000
REMARK 290   SMTRY3   3  0.000000  0.000000  1.000000      163.05075
REMARK 290   SMTRY1   4  0.000000  1.000000  0.000000        0.00000
REMARK 290   SMTRY2   4 -1.000000  0.000000  0.000000        0.00000
REMARK 290   SMTRY3   4  0.000000  0.000000  1.000000       54.35025
REMARK 290   SMTRY1   5 -1.000000  0.000000  0.000000        0.00000
REMARK 290   SMTRY2   5  0.000000  1.000000  0.000000        0.00000
REMARK 290   SMTRY3   5  0.000000  0.000000 -1.000000        0.00000
REMARK 290   SMTRY1   6  1.000000  0.000000  0.000000        0.00000
REMARK 290   SMTRY2   6  0.000000 -1.000000  0.000000        0.00000
REMARK 290   SMTRY3   6  0.000000  0.000000 -1.000000      108.70050
REMARK 290   SMTRY1   7  0.000000  1.000000  0.000000        0.00000
REMARK 290   SMTRY2   7  1.000000  0.000000  0.000000        0.00000
REMARK 290   SMTRY3   7  0.000000  0.000000 -1.000000       54.35025
REMARK 290   SMTRY1   8  0.000000 -1.000000  0.000000        0.00000
REMARK 290   SMTRY2   8 -1.000000  0.000000  0.000000        0.00000
REMARK 290   SMTRY3   8  0.000000  0.000000 -1.000000      163.05075
REMARK 290                                                            
REMARK 290 REMARK: NULL                                               
CRYST1   42.441   42.441  217.401  90.00  90.00  90.00 P 43 2 2                 


$$$$
Zx0904a_ligand
  PyMOL3.0          3D                             0

 14 14  0  0  0  0  0  0  0  0999 V2000
   -8.8180    4.8450  -16.5520 C   0  0  0  0  0  0  0  0  0  0  0  0
   -3.4690    4.9720  -21.3090 N   0  0  0  0  0  0  0  0  0  0  0  0
   -5.8340    5.3040  -18.5310 O   0  0  0  0  0  0  0  0  0  0  0  0
   -9.7350    4.3940  -17.4550 C   0  0  0  0  0  0  0  0  0  0  0  0
   -3.4850    4.2950  -19.1720 O   0  0  0  0  0  0  0  0  0  0  0  0
   -9.3310    4.2230  -18.7590 C   0  0  0  0  0  0  0  0  0  0  0  0
   -8.0270    4.5050  -19.1340 C   0  0  0  0  0  0  0  0  0  0  0  0
   -7.5280    5.1940  -16.8840 C   0  0  0  0  0  0  0  0  0  0  0  0
   -7.1380    5.0090  -18.2000 C   0  0  0  0  0  0  0  0  0  0  0  0
   -5.4480    5.4110  -19.9090 C   0  0  0  0  0  0  0  0  0  0  0  0
   -4.0560    4.8360  -20.1060 C   0  0  0  0  0  0  0  0  0  0  0  0
   -2.0790    5.3880  -21.4180 C   0  0  0  0  0  0  0  0  0  0  0  0
   -4.1640    4.7630  -22.5820 C   0  0  0  0  0  0  0  0  0  0  0  0
   -9.1710    4.8660  -15.2390 F   0  0  0  0  0  0  0  0  0  0  0  0
  1  4  4  0  0  0  0
  1  8  4  0  0  0  0
  2 12  1  0  0  0  0
  2 13  1  0  0  0  0
  3 10  1  0  0  0  0
  4  6  4  0  0  0  0
  6  7  4  0  0  0  0
  7  9  4  0  0  0  0
  8  9  4  0  0  0  0
  3  9  1  0  0  0  0
 10 11  1  0  0  0  0
  2 11  1  0  0  0  0
  5 11  2  0  0  0  0
  1 14  1  0  0  0  0
M  END
>  <pdb_header>
COMPND    XX01ZVNS2B-x0904_B_301_XX01ZVNS2B-x1291+B+301+1


$$$$
Zx0944a
  PyMOL3.0          3D                             0

 15 16  0  0  0  0  0  0  0  0999 V2000
  -26.0840   -5.4300   -2.4050 N   0  0  0  0  0  0  0  0  0  0  0  0
  -25.0560   -7.9200   -6.1600 C   0  0  0  0  0  0  0  0  0  0  0  0
  -26.3340   -4.1250   -4.2230 O   0  0  0  0  0  0  0  0  0  0  0  0
  -23.7440   -7.6570   -6.4540 C   0  0  0  0  0  0  0  0  0  0  0  0
  -27.9160   -6.5080   -0.6460 N   0  0  0  0  0  0  0  0  0  0  0  0
  -23.1300   -6.6190   -5.7820 C   0  0  0  0  0  0  0  0  0  0  0  0
  -23.8340   -5.8730   -4.8470 C   0  0  0  0  0  0  0  0  0  0  0  0
  -25.1760   -6.1400   -4.5860 C   0  0  0  0  0  0  0  0  0  0  0  0
  -25.7940   -7.2000   -5.2430 C   0  0  0  0  0  0  0  0  0  0  0  0
  -25.9220   -5.1600   -3.7240 C   0  0  0  0  0  0  0  0  0  0  0  0
  -25.6660   -6.6700   -1.7340 C   0  0  0  0  0  0  0  0  0  0  0  0
  -26.5200   -7.0120   -0.5300 C   0  0  0  0  0  0  0  0  0  0  0  0
  -28.0140   -5.0440   -0.9270 C   0  0  0  0  0  0  0  0  0  0  0  0
  -26.7500   -4.4640   -1.5210 C   0  0  0  0  0  0  0  0  0  0  0  0
  -25.6760   -8.9150   -6.8390 F   0  0  0  0  0  0  0  0  0  0  0  0
  1 11  1  0  0  0  0
  1 14  1  0  0  0  0
  2 15  1  0  0  0  0
  3 10  2  0  0  0  0
  2  4  4  0  0  0  0
  5 12  1  0  0  0  0
  4  6  4  0  0  0  0
  6  7  4  0  0  0  0
  7  8  4  0  0  0  0
  8  9  4  0  0  0  0
  2  9  4  0  0  0  0
  1 10  1  0  0  0  0
  8 10  1  0  0  0  0
 11 12  1  0  0  0  0
  5 13  1  0  0  0  0
 13 14  1  0  0  0  0
M  END
>  <pdb_header>
HEADER    ----                                    22-JUN-23                     
TITLE     ---                                                                   
EXPDTA    X-RAY DIFFRACTION                                                     
REMARK --------------------- added by autoBUSTER ---------------------------------START
REMARK run at   = Wed Aug  9 14:08:42 BST 2023
REMARK     in   = /dls/labxchem/data/lb32627/lb32627-65/processing/analysis/model_building/XX01ZVNS2B-x0944
REMARK     user = kyf22269
REMARK     cmd  = \
REMARK            /dls_sw/apps/GPhL/BUSTER/20230614/autoBUSTER/bin/linux64/refine \
REMARK            -p \
REMARK            /dls/labxchem/data/lb32627/lb32627-65/processing/analysis/model_building/XX01ZVNS2B-x0944/cootOut/Refi
REMARK            -m \
REMARK            /dls/labxchem/data/lb32627/lb32627-65/processing/analysis/model_building/XX01ZVNS2B-x0944/XX01ZVNS2B-x
REMARK            -l \
REMARK            /dls/labxchem/data/lb32627/lb32627-65/processing/analysis/model_building/XX01ZVNS2B-x0944/Z228586974.c
REMARK            -autoncs -M TLSbasic -d Refine_7
REMARK Files used:
REMARK   PDB              = Refine_7/pdbchk.pdb
REMARK   MTZ              = /dls/labxchem/data/lb32627/lb32627-65/processing/analysis/model_building/XX01ZVNS2B-x0944/XX
REMARK output written to subdirectory = Refine_7
REMARK best refinement for F,SIGF with R/Rfree 0.2529/0.2859
REMARK header records are copied from input PDB file (apart from REMARK 3!)
REMARK --------------------- added by autoBUSTER -----------------------------------END
REMARK --------------------- added by autoBUSTER -------------------------------
REMARK run at   = Wed Aug  9 10:47:33 BST 2023                                  
REMARK     in   = /dls/labxchem/data/lb32627/lb32627-65/processing/analysis/mode
REMARK     user = kyf22269                                                      
REMARK     cmd  = \                                                             
REMARK            /dls_sw/apps/GPhL/BUSTER/20230614/autoBUSTER/bin/linux64/refin
REMARK            -p \                                                          
REMARK            /dls/labxchem/data/lb32627/lb32627-65/processing/analysis/mode
REMARK            -m \                                                          
REMARK            /dls/labxchem/data/lb32627/lb32627-65/processing/analysis/mode
REMARK            -l \                                                          
REMARK            /dls/labxchem/data/lb32627/lb32627-65/processing/analysis/mode
REMARK            -autoncs -M TLSbasic -d Refine_6                              
REMARK Files used:                                                              
REMARK   PDB              = Refine_6/pdbchk.pdb                                 
REMARK   MTZ              = /dls/labxchem/data/lb32627/lb32627-65/processing/ana
REMARK output written to subdirectory = Refine_6                                
REMARK best refinement for F,SIGF with R/Rfree 0.2539/0.2886                    
REMARK header records are copied from input PDB file (apart from REMARK 3!)     
REMARK --------------------- added by autoBUSTER -------------------------------
REMARK --------------------- added by autoBUSTER -------------------------------
REMARK run at   = Tue Aug  1 14:20:54 BST 2023                                  
REMARK     in   = /dls/labxchem/data/lb32627/lb32627-65/processing/analysis/mode
REMARK     user = kyf22269                                                      
REMARK     cmd  = \                                                             
REMARK            /dls_sw/apps/GPhL/BUSTER/20230614/autoBUSTER/bin/linux64/refin
REMARK            -p \                                                          
REMARK            /dls/labxchem/data/lb32627/lb32627-65/processing/analysis/mode
REMARK            -m \                                                          
REMARK            /dls/labxchem/data/lb32627/lb32627-65/processing/analysis/mode
REMARK            -l \                                                          
REMARK            /dls/labxchem/data/lb32627/lb32627-65/processing/analysis/mode
REMARK            -autoncs -M TLSbasic -d Refine_5                              
REMARK Files used:                                                              
REMARK   PDB              = Refine_5/pdbchk.pdb                                 
REMARK   MTZ              = /dls/labxchem/data/lb32627/lb32627-65/processing/ana
REMARK output written to subdirectory = Refine_5                                
REMARK best refinement for F,SIGF with R/Rfree 0.2545/0.2901                    
REMARK header records are copied from input PDB file (apart from REMARK 3!)     
REMARK --------------------- added by autoBUSTER -------------------------------
REMARK --------------------- added by autoBUSTER -------------------------------
REMARK run at   = Thu Jul 13 15:48:31 BST 2023                                  
REMARK     in   = /dls/labxchem/data/lb32627/lb32627-65/processing/analysis/mode
REMARK     user = kyf22269                                                      
REMARK     cmd  = \                                                             
REMARK            /dls_sw/apps/GPhL/BUSTER/20230614/autoBUSTER/bin/linux64/refin
REMARK            -p \                                                          
REMARK            /dls/labxchem/data/lb32627/lb32627-65/processing/analysis/mode
REMARK            -m \                                                          
REMARK            /dls/labxchem/data/lb32627/lb32627-65/processing/analysis/mode
REMARK            -l \                                                          
REMARK            /dls/labxchem/data/lb32627/lb32627-65/processing/analysis/mode
REMARK            -autoncs -M TLSbasic -d Refine_4                              
REMARK Files used:                                                              
REMARK   PDB              = Refine_4/pdbchk.pdb                                 
REMARK   MTZ              = /dls/labxchem/data/lb32627/lb32627-65/processing/ana
REMARK output written to subdirectory = Refine_4                                
REMARK best refinement for F,SIGF with R/Rfree 0.2558/0.2903                    
REMARK header records are copied from input PDB file (apart from REMARK 3!)     
REMARK --------------------- added by autoBUSTER -------------------------------
REMARK --------------------- added by autoBUSTER -------------------------------
REMARK run at   = Wed Jul  5 17:51:47 BST 2023                                  
REMARK     in   = /dls/labxchem/data/lb32627/lb32627-65/processing/analysis/mode
REMARK     user = kyf22269                                                      
REMARK     cmd  = \                                                             
REMARK            /dls_sw/apps/GPhL/BUSTER/20230614/autoBUSTER/bin/linux64/refin
REMARK            -p \                                                          
REMARK            /dls/labxchem/data/lb32627/lb32627-65/processing/analysis/mode
REMARK            -m \                                                          
REMARK            /dls/labxchem/data/lb32627/lb32627-65/processing/analysis/mode
REMARK            -l \                                                          
REMARK            /dls/labxchem/data/lb32627/lb32627-65/processing/analysis/mode
REMARK            -autoncs -M TLSbasic -d Refine_3                              
REMARK Files used:                                                              
REMARK   PDB              = Refine_3/pdbchk.pdb                                 
REMARK   MTZ              = /dls/labxchem/data/lb32627/lb32627-65/processing/ana
REMARK output written to subdirectory = Refine_3                                
REMARK best refinement for F,SIGF with R/Rfree 0.2628/0.3070                    
REMARK header records are copied from input PDB file (apart from REMARK 3!)     
REMARK --------------------- added by autoBUSTER -------------------------------
REMARK   2                                                            
REMARK   2 RESOLUTION.    1.71 ANGSTROMS.
REMARK   3
REMARK   3 REFINEMENT.
REMARK   3   PROGRAM     : BUSTER 2.10.4 (14-JUN-2023)
REMARK   3   AUTHORS     : BRICOGNE,BLANC,BRANDL,FLENSBURG,KELLER,
REMARK   3               : PACIOREK,ROVERSI,SHARFF,SMART,VONRHEIN,WOMACK;
REMARK   3               : MATTHEWS,TEN EYCK,TRONRUD
REMARK   3
REMARK   3  DATA USED IN REFINEMENT.
REMARK   3   RESOLUTION RANGE HIGH (ANGSTROMS) : 1.712
REMARK   3   RESOLUTION RANGE LOW  (ANGSTROMS) : 22.90
REMARK   3   DATA CUTOFF            (SIGMA(F)) : 0.000
REMARK   3   COMPLETENESS FOR RANGE        (%) : 78.6
REMARK   3   NUMBER OF REFLECTIONS             : 17953
REMARK   3
REMARK   3  FIT TO DATA USED IN REFINEMENT.
REMARK   3   CROSS-VALIDATION METHOD          : THROUGHOUT
REMARK   3   FREE R VALUE TEST SET SELECTION  : RANDOM
REMARK   3   R VALUE     (WORKING + TEST SET) : 0.2546
REMARK   3   R VALUE            (WORKING SET) : 0.2529
REMARK   3   FREE R VALUE                     : 0.2859
REMARK   3   FREE R VALUE TEST SET SIZE   (%) : 4.960
REMARK   3   FREE R VALUE TEST SET COUNT      : 891
REMARK   3   ESTIMATED ERROR OF FREE R VALUE  : NULL
REMARK   3
REMARK   3  FIT IN THE HIGHEST RESOLUTION BIN.
REMARK   3   TOTAL NUMBER OF BINS USED           : 45
REMARK   3   BIN RESOLUTION RANGE HIGH       (A) : 1.71
REMARK   3   BIN RESOLUTION RANGE LOW        (A) : 1.86
REMARK   3   BIN COMPLETENESS (WORKING+TEST) (%) : 8.27
REMARK   3   REFLECTIONS IN BIN   (WORKING+TEST) : 409
REMARK   3   BIN R VALUE          (WORKING+TEST) : 0.5048
REMARK   3   REFLECTIONS IN BIN    (WORKING SET) : 385
REMARK   3   BIN R VALUE           (WORKING SET) : 0.5066
REMARK   3   BIN FREE R VALUE                    : 0.4752
REMARK   3   BIN FREE R VALUE TEST SET SIZE  (%) : 5.87
REMARK   3   BIN FREE R VALUE TEST SET COUNT     : 24
REMARK   3   ESTIMATED ERROR OF BIN FREE R VALUE : NULL
REMARK   3
REMARK   3  NUMBER OF NON-HYDROGEN ATOMS USED IN REFINEMENT.
REMARK   3   PROTEIN ATOMS            : 1449
REMARK   3   NUCLEIC ACID ATOMS       : 0
REMARK   3   HETEROGEN ATOMS          : 31
REMARK   3   SOLVENT ATOMS            : 70
REMARK   3
REMARK   3  B VALUES.
REMARK   3   FROM WILSON PLOT           (A**2) : 38.17
REMARK   3   MEAN B VALUE      (OVERALL, A**2) : 59.24
REMARK   3   OVERALL ANISOTROPIC B VALUE.
REMARK   3    B11 (A**2) : -9.98240
REMARK   3    B22 (A**2) : -9.98240
REMARK   3    B33 (A**2) : 19.96470
REMARK   3    B12 (A**2) : 0.00000
REMARK   3    B13 (A**2) : 0.00000
REMARK   3    B23 (A**2) : 0.00000
REMARK   3
REMARK   3  ESTIMATED COORDINATE ERROR.
REMARK   3   ESD FROM LUZZATI PLOT                    (A) : 0.40
REMARK   3   DPI (BLOW EQ-10) BASED ON R VALUE        (A) : 0.190
REMARK   3   DPI (BLOW EQ-9) BASED ON FREE R VALUE    (A) : 0.166
REMARK   3   DPI (CRUICKSHANK) BASED ON R VALUE       (A) : 0.180
REMARK   3   DPI (CRUICKSHANK) BASED ON FREE R VALUE  (A) : 0.161
REMARK   3
REMARK   3   REFERENCES: BLOW, D. (2002) ACTA CRYST D58, 792-797
REMARK   3               CRUICKSHANK, D.W.J. (1999) ACTA CRYST D55, 583-601
REMARK   3
REMARK   3  CORRELATION COEFFICIENTS.
REMARK   3   CORRELATION COEFFICIENT FO-FC      : 0.908
REMARK   3   CORRELATION COEFFICIENT FO-FC FREE : 0.906
REMARK   3
REMARK   3  X-RAY WEIGHT : 7.62
REMARK   3
REMARK   3  GEOMETRY FUNCTION.                                                  
REMARK   3   RESTRAINT LIBRARIES.                                               
REMARK   3    NUMBER OF LIBRARIES USED :   9                                    
REMARK   3    LIBRARY  1 : protgeo_eh99.dat (V1.6.4.20) 20220523  STANDARD      
REMARK   3                 AMINO ACID DICTIONARY. BONDS AND ANGLES FROM         
REMARK   3                 ENGH AND HUBER EH99. OTHER VALUES BASED ON           
REMARK   3                 PREVIOUS TNT OR TAKEN FROM CCP4. INCLUDES            
REMARK   3                 HYDROGEN ATOMS.                                      
REMARK   3    LIBRARY  2 : exoticaa.dat (V1.3.4.16) 20220523  COLLECTION        
REMARK   3                 OF NON-STANDARD AMINO ACIDS, MAINLY EH91             
REMARK   3                 WITHOUT IDEAL DISTANCE INFO                          
REMARK   3    LIBRARY  3 : nuclgeo.dat (V1.13.4.9) 20221011                     
REMARK   3    LIBRARY  4 : bcorrel.dat (V1.15.10.2) 20190616                    
REMARK   3    LIBRARY  5 : contact.dat (V1.15.12.10) 20191121                   
REMARK   3    LIBRARY  6 : idealdist_contact.dat (V1.3.4.13) 20220125           
REMARK   3                 IDEAL-DISTANCE CONTACT TERM DATA AS USED IN          
REMARK   3                 PROLSQ. VALUES USED HERE ARE BASED ON DATA           
REMARK   3                 HARVESTING OF PDB AS OF 20190109.                    
REMARK   3    LIBRARY  7 : restraints for LIG (unknown) from cif                
REMARK   3                 dictionary Z228586974.cif; generated by GRADE        
REMARK   3                 1.2.21 (Feb 03 2022) from SMILES                     
REMARK   3                 Fc1cccc(c1)C(=O)N2CCNCC2 using MOGUL                 
REMARK   3                 1.8.5(274361), CSD as541be, with quantum             
REMARK   3                 mechanics RM1                                        
REMARK   3    LIBRARY  8 : restraints for DMS (DIMETHYL SULFOXIDE) from         
REMARK   3                 cif dictionary DMS.cif; generated by grade2          
REMARK   3                 version 1.1.0a7 from                                 
REMARK   3                 PDB_chemical_components_definition_file              
REMARK   3                 ftp://ftp.ebi.ac.uk/pub/databases/msd/pdbechem_v     
REMARK   3                 2/D/DMS/DMS.cif using RDKit 2021.03.4                
REMARK   3                 ((DatabaseID PDB-DMS))                               
REMARK   3    LIBRARY  9 : assume.dat (V1.9.4.3) 20221011                       
REMARK   3                                                                      
REMARK   3   NUMBER OF GEOMETRIC FUNCTION TERMS DEFINED : 15                    
REMARK   3   TERM                          COUNT    WEIGHT   FUNCTION.          
REMARK   3    BOND LENGTHS              :   1649 ;   2.00 ;  HARMONIC           
REMARK   3    BOND ANGLES               :   2265 ;   2.00 ;  HARMONIC           
REMARK   3    TORSION ANGLES            :    554 ;   2.00 ;  SINUSOIDAL         
REMARK   3    TRIGONAL CARBON PLANES    :   NULL ;   NULL ;  NULL               
REMARK   3    GENERAL PLANES            :    296 ;   5.00 ;  HARMONIC           
REMARK   3    ISOTROPIC THERMAL FACTORS :   1649 ;  10.00 ;  HARMONIC           
REMARK   3    BAD NON-BONDED CONTACTS   :   NULL ;   NULL ;  NULL               
REMARK   3    IMPROPER TORSIONS         :   NULL ;   NULL ;  NULL               
REMARK   3    PSEUDOROTATION ANGLES     :   NULL ;   NULL ;  NULL               
REMARK   3    CHIRAL IMPROPER TORSION   :    208 ;   5.00 ;  SEMIHARMONIC       
REMARK   3    SUM OF OCCUPANCIES        :   NULL ;   NULL ;  NULL               
REMARK   3    UTILITY DISTANCES         :   NULL ;   NULL ;  NULL               
REMARK   3    UTILITY ANGLES            :   NULL ;   NULL ;  NULL               
REMARK   3    UTILITY TORSION           :   NULL ;   NULL ;  NULL               
REMARK   3    IDEAL-DIST CONTACT TERM   :   1276 ;   4.00 ;  SEMIHARMONIC       
REMARK   3                                                                      
REMARK   3   RMS DEVIATIONS FROM IDEAL VALUES.                                  
REMARK   3   BOND LENGTHS                       (A) : 0.009                     
REMARK   3   BOND ANGLES                  (DEGREES) : 1.04                      
REMARK   3   PEPTIDE OMEGA TORSION ANGLES (DEGREES) : 3.31                      
REMARK   3   OTHER TORSION ANGLES         (DEGREES) : 15.90                     
REMARK   3                                                                      
REMARK   3   SIMILARITY.                                                        
REMARK   3    NCS.                                                              
REMARK   3     NCS METHOD: NONE                                                 
REMARK   3    TARGET RESTRAINTS.                                                
REMARK   3     TARGET REPRESENTATION : NONE                                     
REMARK   3     TARGET STRUCTURE : NULL                                          
REMARK   3                                                                      
REMARK   3  TLS DETAILS.                                                        
REMARK   3   NUMBER OF TLS GROUPS  :            2                               
REMARK   3                                                                      
REMARK   3   TLS GROUP :            1                                           
REMARK   3    SET : { A|* }                                                     
REMARK   3    ORIGIN FOR THE GROUP (A):  -14.2240   -1.6050  -19.4467           
REMARK   3    T TENSOR                                                          
REMARK   3     T11:   -0.0587 T22:   -0.1559                                    
REMARK   3     T33:   -0.1249 T12:    0.1603                                    
REMARK   3     T13:    0.1656 T23:    0.1403                                    
REMARK   3    L TENSOR                                                          
REMARK   3     L11:    4.3802 L22:    4.1605                                    
REMARK   3     L33:    5.4773 L12:   -2.0033                                    
REMARK   3     L13:    0.5713 L23:    0.9268                                    
REMARK   3    S TENSOR                                                          
REMARK   3     S11:    0.5101 S12:    0.4653 S13:    0.2855                     
REMARK   3     S21:   -0.6647 S22:   -0.4482 S23:   -0.3964                     
REMARK   3     S31:   -0.0993 S32:    0.6051 S33:   -0.0619                     
REMARK   3                                                                      
REMARK   3   TLS GROUP :            2                                           
REMARK   3    SET : { B|* }                                                     
REMARK   3    ORIGIN FOR THE GROUP (A):  -18.3437    0.9028  -15.6684           
REMARK   3    T TENSOR                                                          
REMARK   3     T11:    0.0836 T22:   -0.0561                                    
REMARK   3     T33:    0.0462 T12:    0.1808                                    
REMARK   3     T13:    0.0691 T23:    0.0586                                    
REMARK   3    L TENSOR                                                          
REMARK   3     L11:    0.8876 L22:    1.7198                                    
REMARK   3     L33:    2.0668 L12:   -0.7104                                    
REMARK   3     L13:    0.6067 L23:   -0.2801                                    
REMARK   3    S TENSOR                                                          
REMARK   3     S11:    0.3293 S12:    0.1167 S13:    0.1515                     
REMARK   3     S21:   -0.2717 S22:   -0.3346 S23:    0.0545                     
REMARK   3     S31:   -0.0494 S32:    0.2224 S33:    0.0053                     
REMARK   3                                                                      
REMARK   3  REFINEMENT NOTES.                                                   
REMARK   3   NUMBER OF REFINEMENT NOTES :   1                                   
REMARK   3   NOTE   1 : IDEAL-DIST CONTACT TERM CONTACT SETUP. ALL ATOMS        
REMARK   3               HAVE CCP4 ATOM TYPE FROM LIBRARY                       
REMARK   3
REMARK   3  OTHER REFINEMENT REMARKS: NULL
REMARK   3
REMARK 290                                                            
REMARK 290 CRYSTALLOGRAPHIC SYMMETRY                                  
REMARK 290 SYMMETRY OPERATORS FOR SPACE GROUP: P 43 2 2               
REMARK 290                                                            
REMARK 290      SYMOP   SYMMETRY                                      
REMARK 290     NNNMMM   OPERATOR                                      
REMARK 290       1555   X,Y,Z                                         
REMARK 290       2555   -X,-Y,1/2+Z                                   
REMARK 290       3555   -Y,X,3/4+Z                                    
REMARK 290       4555   Y,-X,1/4+Z                                    
REMARK 290       5555   -X,Y,-Z                                       
REMARK 290       6555   X,-Y,1/2-Z                                    
REMARK 290       7555   Y,X,1/4-Z                                     
REMARK 290       8555   -Y,-X,3/4-Z                                   
REMARK 290                                                            
REMARK 290     WHERE NNN -> OPERATOR NUMBER                           
REMARK 290           MMM -> TRANSLATION VECTOR                        
REMARK 290                                                            
REMARK 290 CRYSTALLOGRAPHIC SYMMETRY TRANSFORMATIONS                  
REMARK 290 THE FOLLOWING TRANSFORMATIONS OPERATE ON THE ATOM/HETATM   
REMARK 290 RECORDS IN THIS ENTRY TO PRODUCE CRYSTALLOGRAPHICALLY      
REMARK 290 RELATED MOLECULES.                                         
REMARK 290   SMTRY1   1  1.000000  0.000000  0.000000        0.00000
REMARK 290   SMTRY2   1  0.000000  1.000000  0.000000        0.00000
REMARK 290   SMTRY3   1  0.000000  0.000000  1.000000        0.00000
REMARK 290   SMTRY1   2 -1.000000  0.000000  0.000000        0.00000
REMARK 290   SMTRY2   2  0.000000 -1.000000  0.000000        0.00000
REMARK 290   SMTRY3   2  0.000000  0.000000  1.000000      108.49600
REMARK 290   SMTRY1   3  0.000000 -1.000000  0.000000        0.00000
REMARK 290   SMTRY2   3  1.000000  0.000000  0.000000        0.00000
REMARK 290   SMTRY3   3  0.000000  0.000000  1.000000      162.74400
REMARK 290   SMTRY1   4  0.000000  1.000000  0.000000        0.00000
REMARK 290   SMTRY2   4 -1.000000  0.000000  0.000000        0.00000
REMARK 290   SMTRY3   4  0.000000  0.000000  1.000000       54.24800
REMARK 290   SMTRY1   5 -1.000000  0.000000  0.000000        0.00000
REMARK 290   SMTRY2   5  0.000000  1.000000  0.000000        0.00000
REMARK 290   SMTRY3   5  0.000000  0.000000 -1.000000        0.00000
REMARK 290   SMTRY1   6  1.000000  0.000000  0.000000        0.00000
REMARK 290   SMTRY2   6  0.000000 -1.000000  0.000000        0.00000
REMARK 290   SMTRY3   6  0.000000  0.000000 -1.000000      108.49600
REMARK 290   SMTRY1   7  0.000000  1.000000  0.000000        0.00000
REMARK 290   SMTRY2   7  1.000000  0.000000  0.000000        0.00000
REMARK 290   SMTRY3   7  0.000000  0.000000 -1.000000       54.24800
REMARK 290   SMTRY1   8  0.000000 -1.000000  0.000000        0.00000
REMARK 290   SMTRY2   8 -1.000000  0.000000  0.000000        0.00000
REMARK 290   SMTRY3   8  0.000000  0.000000 -1.000000      162.74400
REMARK 290                                                            
REMARK 290 REMARK: NULL                                               
CRYST1   42.723   42.723  216.992  90.00  90.00  90.00 P 43 2 2                 


$$$$
Zx0944a_ligand
  PyMOL3.0          3D                             0

 15 16  0  0  0  0  0  0  0  0999 V2000
  -25.9220   -5.1600   -3.7240 C   0  0  0  0  0  0  0  0  0  0  0  0
  -26.0840   -5.4300   -2.4050 N   0  0  0  0  0  0  0  0  0  0  0  0
  -26.3340   -4.1250   -4.2230 O   0  0  0  0  0  0  0  0  0  0  0  0
  -25.1760   -6.1400   -4.5860 C   0  0  0  0  0  0  0  0  0  0  0  0
  -27.9160   -6.5080   -0.6460 N   0  0  0  0  0  0  0  0  0  0  0  0
  -23.8340   -5.8730   -4.8470 C   0  0  0  0  0  0  0  0  0  0  0  0
  -23.1300   -6.6190   -5.7820 C   0  0  0  0  0  0  0  0  0  0  0  0
  -23.7440   -7.6570   -6.4540 C   0  0  0  0  0  0  0  0  0  0  0  0
  -25.7940   -7.2000   -5.2430 C   0  0  0  0  0  0  0  0  0  0  0  0
  -25.0560   -7.9200   -6.1600 C   0  0  0  0  0  0  0  0  0  0  0  0
  -26.7500   -4.4640   -1.5210 C   0  0  0  0  0  0  0  0  0  0  0  0
  -28.0140   -5.0440   -0.9270 C   0  0  0  0  0  0  0  0  0  0  0  0
  -26.5200   -7.0120   -0.5300 C   0  0  0  0  0  0  0  0  0  0  0  0
  -25.6660   -6.6700   -1.7340 C   0  0  0  0  0  0  0  0  0  0  0  0
  -25.6760   -8.9150   -6.8390 F   0  0  0  0  0  0  0  0  0  0  0  0
  1  2  1  0  0  0  0
  1  4  1  0  0  0  0
  2 11  1  0  0  0  0
  2 14  1  0  0  0  0
  1  3  2  0  0  0  0
  4  6  4  0  0  0  0
  4  9  4  0  0  0  0
  5 13  1  0  0  0  0
  6  7  4  0  0  0  0
  7  8  4  0  0  0  0
  8 10  4  0  0  0  0
  9 10  4  0  0  0  0
 10 15  1  0  0  0  0
 11 12  1  0  0  0  0
  5 12  1  0  0  0  0
 13 14  1  0  0  0  0
M  END
>  <pdb_header>
COMPND    XX01ZVNS2B-x0944_B_301_XX01ZVNS2B-x0130+B+204+1


$$$$
Zx0945a
  PyMOL3.0          3D                             0

 14 15  0  0  0  0  0  0  0  0999 V2000
   -6.7870    5.3770  -15.9820 N   0  0  0  0  0  0  0  0  0  0  0  0
  -10.8320    4.5360  -18.6140 C   0  0  0  0  0  0  0  0  0  0  0  0
  -10.2550    3.8890  -17.4800 O   0  0  0  0  0  0  0  0  0  0  0  0
   -9.1040    4.3890  -16.9930 C   0  0  0  0  0  0  0  0  0  0  0  0
   -8.1400    4.7250  -17.8350 N   0  0  0  0  0  0  0  0  0  0  0  0
   -9.0030    4.5010  -15.6080 C   0  0  0  0  0  0  0  0  0  0  0  0
   -5.9850    5.5040  -18.1470 N   0  0  0  0  0  0  0  0  0  0  0  0
   -7.7960    5.0130  -15.1720 C   0  0  0  0  0  0  0  0  0  0  0  0
   -4.5420    7.3980  -19.2730 N   0  0  0  0  0  0  0  0  0  0  0  0
   -7.0110    5.2040  -17.2930 C   0  0  0  0  0  0  0  0  0  0  0  0
   -4.5730    5.3980  -17.7560 C   0  0  0  0  0  0  0  0  0  0  0  0
   -3.7560    6.5450  -18.3320 C   0  0  0  0  0  0  0  0  0  0  0  0
   -5.3040    6.5930  -20.2670 C   0  0  0  0  0  0  0  0  0  0  0  0
   -6.1430    5.5030  -19.6080 C   0  0  0  0  0  0  0  0  0  0  0  0
  1  8  4  0  0  0  0
  2  3  1  0  0  0  0
  3  4  1  0  0  0  0
  4  5  4  0  0  0  0
  4  6  4  0  0  0  0
  5 10  4  0  0  0  0
  7 11  1  0  0  0  0
  7 14  1  0  0  0  0
  6  8  4  0  0  0  0
  9 12  1  0  0  0  0
  1 10  4  0  0  0  0
  7 10  1  0  0  0  0
 11 12  1  0  0  0  0
  9 13  1  0  0  0  0
 13 14  1  0  0  0  0
M  END
>  <pdb_header>
HEADER    ----                                    25-MAY-23                     
TITLE     ---                                                                   
EXPDTA    X-RAY DIFFRACTION                                                     
REMARK --------------------- added by autoBUSTER ---------------------------------START
REMARK run at   = Fri Sep 29 18:31:32 BST 2023
REMARK     in   = /dls/labxchem/data/lb32627/lb32627-65/processing/analysis/model_building/XX01ZVNS2B-x0945
REMARK     user = kyf22269
REMARK     cmd  = \
REMARK            /dls_sw/apps/GPhL/BUSTER/20230726/autoBUSTER/bin/linux64/refine \
REMARK            -p \
REMARK            /dls/labxchem/data/lb32627/lb32627-65/processing/analysis/model_building/XX01ZVNS2B-x0945/cootOut/Refi
REMARK            -m \
REMARK            /dls/labxchem/data/lb32627/lb32627-65/processing/analysis/model_building/XX01ZVNS2B-x0945/XX01ZVNS2B-x
REMARK            -l \
REMARK            /dls/labxchem/data/lb32627/lb32627-65/processing/analysis/model_building/XX01ZVNS2B-x0945/Z228587394.c
REMARK            -autoncs -M TLSbasic -d Refine_7
REMARK Files used:
REMARK   PDB              = Refine_7/pdbchk.pdb
REMARK   MTZ              = /dls/labxchem/data/lb32627/lb32627-65/processing/analysis/model_building/XX01ZVNS2B-x0945/XX
REMARK output written to subdirectory = Refine_7
REMARK best refinement for F,SIGF with R/Rfree 0.2255/0.2596
REMARK header records are copied from input PDB file (apart from REMARK 3!)
REMARK --------------------- added by autoBUSTER -----------------------------------END
REMARK --------------------- added by autoBUSTER -------------------------------
REMARK run at   = Tue Aug  1 14:33:08 BST 2023                                  
REMARK     in   = /dls/labxchem/data/lb32627/lb32627-65/processing/analysis/mode
REMARK     user = kyf22269                                                      
REMARK     cmd  = \                                                             
REMARK            /dls_sw/apps/GPhL/BUSTER/20230614/autoBUSTER/bin/linux64/refin
REMARK            -p \                                                          
REMARK            /dls/labxchem/data/lb32627/lb32627-65/processing/analysis/mode
REMARK            -m \                                                          
REMARK            /dls/labxchem/data/lb32627/lb32627-65/processing/analysis/mode
REMARK            -l \                                                          
REMARK            /dls/labxchem/data/lb32627/lb32627-65/processing/analysis/mode
REMARK            -autoncs -M TLSbasic -d Refine_6                              
REMARK Files used:                                                              
REMARK   PDB              = Refine_6/pdbchk.pdb                                 
REMARK   MTZ              = /dls/labxchem/data/lb32627/lb32627-65/processing/ana
REMARK output written to subdirectory = Refine_6                                
REMARK best refinement for F,SIGF with R/Rfree 0.2255/0.2595                    
REMARK header records are copied from input PDB file (apart from REMARK 3!)     
REMARK --------------------- added by autoBUSTER -------------------------------
REMARK --------------------- added by autoBUSTER -------------------------------
REMARK run at   = Wed Jun 14 18:41:37 BST 2023                                  
REMARK     in   = /dls/labxchem/data/lb32627/lb32627-65/processing/analysis/mode
REMARK     user = xau79897                                                      
REMARK     cmd  = \                                                             
REMARK            /dls_sw/apps/GPhL/BUSTER/20230614/autoBUSTER/bin/linux64/refin
REMARK            -p \                                                          
REMARK            /dls/labxchem/data/lb32627/lb32627-65/processing/analysis/mode
REMARK            -m \                                                          
REMARK            /dls/labxchem/data/lb32627/lb32627-65/processing/analysis/mode
REMARK            -l \                                                          
REMARK            /dls/labxchem/data/lb32627/lb32627-65/processing/analysis/mode
REMARK            -autoncs -M TLSbasic StopOnGellySanityCheckError=no -d \      
REMARK            Refine_5                                                      
REMARK Files used:                                                              
REMARK   PDB              = Refine_5/pdbchk.pdb                                 
REMARK   MTZ              = /dls/labxchem/data/lb32627/lb32627-65/processing/ana
REMARK output written to subdirectory = Refine_5                                
REMARK best refinement for F,SIGF with R/Rfree 0.2254/0.2578                    
REMARK header records are copied from input PDB file (apart from REMARK 3!)     
REMARK --------------------- added by autoBUSTER -------------------------------
REMARK --------------------- added by autoBUSTER -------------------------------
REMARK run at   = Mon May 29 19:22:41 BST 2023                                  
REMARK     in   = /dls/labxchem/data/lb32627/lb32627-65/processing/analysis/mode
REMARK     user = xau79897                                                      
REMARK     cmd  = \                                                             
REMARK            /dls_sw/apps/GPhL/BUSTER/20230217/autoBUSTER/bin/linux64/refin
REMARK            -p \                                                          
REMARK            /dls/labxchem/data/lb32627/lb32627-65/processing/analysis/mode
REMARK            -m \                                                          
REMARK            /dls/labxchem/data/lb32627/lb32627-65/processing/analysis/mode
REMARK            -l \                                                          
REMARK            /dls/labxchem/data/lb32627/lb32627-65/processing/analysis/mode
REMARK            -autoncs -M TLSbasic -WAT -B user -Gelly gelly.dat \          
REMARK            StopOnGellySanityCheckError=no -d Refine_4                    
REMARK Files used:                                                              
REMARK   PDB              = Refine_4/pdbchk.pdb                                 
REMARK   MTZ              = /dls/labxchem/data/lb32627/lb32627-65/processing/ana
REMARK   Gelly commands       = /dls/labxchem/data/lb32627/lb32627-65/processing
REMARK output written to subdirectory = Refine_4                                
REMARK best refinement for F,SIGF with R/Rfree 0.2283/0.2674                    
REMARK header records are copied from input PDB file (apart from REMARK 3!)     
REMARK --------------------- added by autoBUSTER -------------------------------
REMARK --------------------- added by autoBUSTER -------------------------------
REMARK run at   = Fri May 26 21:43:58 BST 2023                                  
REMARK     in   = /dls/labxchem/data/lb32627/lb32627-65/processing/analysis/mode
REMARK     user = xau79897                                                      
REMARK     cmd  = \                                                             
REMARK            /dls_sw/apps/GPhL/BUSTER/20230217/autoBUSTER/bin/linux64/refin
REMARK            -p \                                                          
REMARK            /dls/labxchem/data/lb32627/lb32627-65/processing/analysis/mode
REMARK            -m \                                                          
REMARK            /dls/labxchem/data/lb32627/lb32627-65/processing/analysis/mode
REMARK            -l \                                                          
REMARK            /dls/labxchem/data/lb32627/lb32627-65/processing/analysis/mode
REMARK            -autoncs -M TLSbasic -WAT -B user -Gelly gelly.dat \          
REMARK            StopOnGellySanityCheckError=no -d Refine_3                    
REMARK Files used:                                                              
REMARK   PDB              = Refine_3/pdbchk.pdb                                 
REMARK   MTZ              = /dls/labxchem/data/lb32627/lb32627-65/processing/ana
REMARK   Gelly commands       = /dls/labxchem/data/lb32627/lb32627-65/processing
REMARK output written to subdirectory = Refine_3                                
REMARK best refinement for F,SIGF with R/Rfree 0.2291/0.2674                    
REMARK header records are copied from input PDB file (apart from REMARK 3!)     
REMARK --------------------- added by autoBUSTER -------------------------------
REMARK --------------------- added by autoBUSTER -------------------------------
REMARK run at   = Fri May 26 13:31:11 BST 2023                                  
REMARK     in   = /dls/labxchem/data/lb32627/lb32627-65/processing/analysis/mode
REMARK     user = xau79897                                                      
REMARK     cmd  = \                                                             
REMARK            /dls_sw/apps/GPhL/BUSTER/20230217/autoBUSTER/bin/linux64/refin
REMARK            -p \                                                          
REMARK            /dls/labxchem/data/lb32627/lb32627-65/processing/analysis/mode
REMARK            -m \                                                          
REMARK            /dls/labxchem/data/lb32627/lb32627-65/processing/analysis/mode
REMARK            -l \                                                          
REMARK            /dls/labxchem/data/lb32627/lb32627-65/processing/analysis/mode
REMARK            -autoncs -M TLSbasic -WAT -B user -Gelly gelly.dat \          
REMARK            StopOnGellySanityCheckError=no -d Refine_2                    
REMARK Files used:                                                              
REMARK   PDB              = Refine_2/pdbchk.pdb                                 
REMARK   MTZ              = /dls/labxchem/data/lb32627/lb32627-65/processing/ana
REMARK   Gelly commands       = /dls/labxchem/data/lb32627/lb32627-65/processing
REMARK output written to subdirectory = Refine_2                                
REMARK best refinement for F,SIGF with R/Rfree 0.2270/0.2663                    
REMARK header records are copied from input PDB file (apart from REMARK 3!)     
REMARK --------------------- added by autoBUSTER -------------------------------
REMARK   2                                                            
REMARK   2 RESOLUTION.    1.73 ANGSTROMS.
REMARK   3
REMARK   3 REFINEMENT.
REMARK   3   PROGRAM     : BUSTER 2.10.4 (26-JUL-2023)
REMARK   3   AUTHORS     : BRICOGNE,BLANC,BRANDL,FLENSBURG,KELLER,
REMARK   3               : PACIOREK,ROVERSI,SHARFF,SMART,VONRHEIN,WOMACK;
REMARK   3               : MATTHEWS,TEN EYCK,TRONRUD
REMARK   3
REMARK   3  DATA USED IN REFINEMENT.
REMARK   3   RESOLUTION RANGE HIGH (ANGSTROMS) : 1.730
REMARK   3   RESOLUTION RANGE LOW  (ANGSTROMS) : 18.41
REMARK   3   DATA CUTOFF            (SIGMA(F)) : 0.000
REMARK   3   COMPLETENESS FOR RANGE        (%) : 97.7
REMARK   3   NUMBER OF REFLECTIONS             : 21505
REMARK   3
REMARK   3  FIT TO DATA USED IN REFINEMENT.
REMARK   3   CROSS-VALIDATION METHOD          : THROUGHOUT
REMARK   3   FREE R VALUE TEST SET SELECTION  : RANDOM
REMARK   3   R VALUE     (WORKING + TEST SET) : 0.2272
REMARK   3   R VALUE            (WORKING SET) : 0.2255
REMARK   3   FREE R VALUE                     : 0.2596
REMARK   3   FREE R VALUE TEST SET SIZE   (%) : 5.060
REMARK   3   FREE R VALUE TEST SET COUNT      : 1088
REMARK   3   ESTIMATED ERROR OF FREE R VALUE  : NULL
REMARK   3
REMARK   3  FIT IN THE HIGHEST RESOLUTION BIN.
REMARK   3   TOTAL NUMBER OF BINS USED           : 51
REMARK   3   BIN RESOLUTION RANGE HIGH       (A) : 1.73
REMARK   3   BIN RESOLUTION RANGE LOW        (A) : 1.75
REMARK   3   BIN COMPLETENESS (WORKING+TEST) (%) : 75.83
REMARK   3   REFLECTIONS IN BIN   (WORKING+TEST) : 431
REMARK   3   BIN R VALUE          (WORKING+TEST) : 0.4121
REMARK   3   REFLECTIONS IN BIN    (WORKING SET) : 414
REMARK   3   BIN R VALUE           (WORKING SET) : 0.4128
REMARK   3   BIN FREE R VALUE                    : 0.3965
REMARK   3   BIN FREE R VALUE TEST SET SIZE  (%) : 3.94
REMARK   3   BIN FREE R VALUE TEST SET COUNT     : 17
REMARK   3   ESTIMATED ERROR OF BIN FREE R VALUE : NULL
REMARK   3
REMARK   3  NUMBER OF NON-HYDROGEN ATOMS USED IN REFINEMENT.
REMARK   3   PROTEIN ATOMS            : 1476
REMARK   3   NUCLEIC ACID ATOMS       : 0
REMARK   3   HETEROGEN ATOMS          : 18
REMARK   3   SOLVENT ATOMS            : 125
REMARK   3
REMARK   3  B VALUES.
REMARK   3   FROM WILSON PLOT           (A**2) : 39.80
REMARK   3   MEAN B VALUE      (OVERALL, A**2) : 52.95
REMARK   3   OVERALL ANISOTROPIC B VALUE.
REMARK   3    B11 (A**2) : -0.63320
REMARK   3    B22 (A**2) : -0.63320
REMARK   3    B33 (A**2) : 1.26640
REMARK   3    B12 (A**2) : 0.00000
REMARK   3    B13 (A**2) : 0.00000
REMARK   3    B23 (A**2) : 0.00000
REMARK   3
REMARK   3  ESTIMATED COORDINATE ERROR.
REMARK   3   ESD FROM LUZZATI PLOT                    (A) : 0.30
REMARK   3   DPI (BLOW EQ-10) BASED ON R VALUE        (A) : 0.145
REMARK   3   DPI (BLOW EQ-9) BASED ON FREE R VALUE    (A) : 0.134
REMARK   3   DPI (CRUICKSHANK) BASED ON R VALUE       (A) : 0.134
REMARK   3   DPI (CRUICKSHANK) BASED ON FREE R VALUE  (A) : 0.128
REMARK   3
REMARK   3   REFERENCES: BLOW, D. (2002) ACTA CRYST D58, 792-797
REMARK   3               CRUICKSHANK, D.W.J. (1999) ACTA CRYST D55, 583-601
REMARK   3
REMARK   3  CORRELATION COEFFICIENTS.
REMARK   3   CORRELATION COEFFICIENT FO-FC      : 0.956
REMARK   3   CORRELATION COEFFICIENT FO-FC FREE : 0.951
REMARK   3
REMARK   3  X-RAY WEIGHT : 6.04
REMARK   3
REMARK   3  GEOMETRY FUNCTION.                                                  
REMARK   3   RESTRAINT LIBRARIES.                                               
REMARK   3    NUMBER OF LIBRARIES USED :   9                                    
REMARK   3    LIBRARY  1 : protgeo_eh99.dat (V1.6.4.20) 20220523  STANDARD      
REMARK   3                 AMINO ACID DICTIONARY. BONDS AND ANGLES FROM         
REMARK   3                 ENGH AND HUBER EH99. OTHER VALUES BASED ON           
REMARK   3                 PREVIOUS TNT OR TAKEN FROM CCP4. INCLUDES            
REMARK   3                 HYDROGEN ATOMS.                                      
REMARK   3    LIBRARY  2 : exoticaa.dat (V1.3.4.16) 20220523  COLLECTION        
REMARK   3                 OF NON-STANDARD AMINO ACIDS, MAINLY EH91             
REMARK   3                 WITHOUT IDEAL DISTANCE INFO                          
REMARK   3    LIBRARY  3 : nuclgeo.dat (V1.13.4.9) 20221011                     
REMARK   3    LIBRARY  4 : bcorrel.dat (V1.15.10.2) 20190616                    
REMARK   3    LIBRARY  5 : contact.dat (V1.15.12.10) 20191121                   
REMARK   3    LIBRARY  6 : idealdist_contact.dat (V1.3.4.14) 20230724           
REMARK   3                 IDEAL-DISTANCE CONTACT TERM DATA AS USED IN          
REMARK   3                 PROLSQ. VALUES USED HERE ARE BASEd ON DATA           
REMARK   3                 HARVESTING OF PDB AS OF 20190109                     
REMARK   3    LIBRARY  7 : restraints for LIG (unknown) from cif                
REMARK   3                 dictionary Z228587394.cif; generated by GRADE        
REMARK   3                 1.2.21 (Feb 03 2022) from SMILES                     
REMARK   3                 COc1ccnc(n1)N2CCNCC2 using MOGUL 1.8.5(274361),      
REMARK   3                 CSD as541be, with quantum mechanics RM1              
REMARK   3    LIBRARY  8 : restraints for DMS (DIMETHYL SULFOXIDE) from         
REMARK   3                 cif dictionary DMS.cif; generated by grade2          
REMARK   3                 version 1.1.0a7 from                                 
REMARK   3                 PDB_chemical_components_definition_file              
REMARK   3                 ftp://ftp.ebi.ac.uk/pub/databases/msd/pdbechem_v     
REMARK   3                 2/D/DMS/DMS.cif using RDKit 2021.03.4                
REMARK   3                 ((DatabaseID PDB-DMS))                               
REMARK   3    LIBRARY  9 : assume.dat (V1.9.4.3) 20221011                       
REMARK   3                                                                      
REMARK   3   NUMBER OF GEOMETRIC FUNCTION TERMS DEFINED : 15                    
REMARK   3   TERM                          COUNT    WEIGHT   FUNCTION.          
REMARK   3    BOND LENGTHS              :   1635 ;   2.00 ;  HARMONIC           
REMARK   3    BOND ANGLES               :   2238 ;   2.00 ;  HARMONIC           
REMARK   3    TORSION ANGLES            :    558 ;   2.00 ;  SINUSOIDAL         
REMARK   3    TRIGONAL CARBON PLANES    :   NULL ;   NULL ;  NULL               
REMARK   3    GENERAL PLANES            :    290 ;   5.00 ;  HARMONIC           
REMARK   3    ISOTROPIC THERMAL FACTORS :   1635 ;  10.00 ;  HARMONIC           
REMARK   3    BAD NON-BONDED CONTACTS   :   NULL ;   NULL ;  NULL               
REMARK   3    IMPROPER TORSIONS         :   NULL ;   NULL ;  NULL               
REMARK   3    PSEUDOROTATION ANGLES     :   NULL ;   NULL ;  NULL               
REMARK   3    CHIRAL IMPROPER TORSION   :    203 ;   5.00 ;  SEMIHARMONIC       
REMARK   3    SUM OF OCCUPANCIES        :   NULL ;   NULL ;  NULL               
REMARK   3    UTILITY DISTANCES         :   NULL ;   NULL ;  NULL               
REMARK   3    UTILITY ANGLES            :   NULL ;   NULL ;  NULL               
REMARK   3    UTILITY TORSION           :   NULL ;   NULL ;  NULL               
REMARK   3    IDEAL-DIST CONTACT TERM   :   1332 ;   4.00 ;  SEMIHARMONIC       
REMARK   3                                                                      
REMARK   3   RMS DEVIATIONS FROM IDEAL VALUES.                                  
REMARK   3   BOND LENGTHS                       (A) : 0.009                     
REMARK   3   BOND ANGLES                  (DEGREES) : 0.98                      
REMARK   3   PEPTIDE OMEGA TORSION ANGLES (DEGREES) : 3.57                      
REMARK   3   OTHER TORSION ANGLES         (DEGREES) : 16.77                     
REMARK   3                                                                      
REMARK   3   SIMILARITY.                                                        
REMARK   3    NCS.                                                              
REMARK   3     NCS METHOD: NONE                                                 
REMARK   3    TARGET RESTRAINTS.                                                
REMARK   3     TARGET REPRESENTATION : NONE                                     
REMARK   3     TARGET STRUCTURE : NULL                                          
REMARK   3                                                                      
REMARK   3  TLS DETAILS.                                                        
REMARK   3   NUMBER OF TLS GROUPS  :            2                               
REMARK   3                                                                      
REMARK   3   TLS GROUP :            1                                           
REMARK   3    SET : { A|* }                                                     
REMARK   3    ORIGIN FOR THE GROUP (A):  -14.1782   -2.0310  -19.8213           
REMARK   3    T TENSOR                                                          
REMARK   3     T11:    0.0905 T22:   -0.0120                                    
REMARK   3     T33:   -0.2405 T12:    0.1802                                    
REMARK   3     T13:    0.1390 T23:    0.1153                                    
REMARK   3    L TENSOR                                                          
REMARK   3     L11:    2.9612 L22:    3.4567                                    
REMARK   3     L33:    3.0161 L12:   -1.5903                                    
REMARK   3     L13:    0.0633 L23:    0.3732                                    
REMARK   3    S TENSOR                                                          
REMARK   3     S11:    0.5069 S12:    0.3189 S13:    0.3227                     
REMARK   3     S21:   -0.5536 S22:   -0.4232 S23:   -0.2518                     
REMARK   3     S31:   -0.0302 S32:    0.3748 S33:   -0.0837                     
REMARK   3                                                                      
REMARK   3   TLS GROUP :            2                                           
REMARK   3    SET : { B|* }                                                     
REMARK   3    ORIGIN FOR THE GROUP (A):  -17.9805    0.5244  -15.6097           
REMARK   3    T TENSOR                                                          
REMARK   3     T11:    0.1732 T22:    0.0524                                    
REMARK   3     T33:   -0.1099 T12:    0.1788                                    
REMARK   3     T13:    0.0830 T23:    0.0553                                    
REMARK   3    L TENSOR                                                          
REMARK   3     L11:    1.3801 L22:    1.4526                                    
REMARK   3     L33:    1.6112 L12:   -0.6497                                    
REMARK   3     L13:    0.4427 L23:   -0.1471                                    
REMARK   3    S TENSOR                                                          
REMARK   3     S11:    0.3310 S12:    0.1378 S13:    0.1596                     
REMARK   3     S21:   -0.1543 S22:   -0.3107 S23:    0.0469                     
REMARK   3     S31:    0.0421 S32:    0.1685 S33:   -0.0203                     
REMARK   3                                                                      
REMARK   3  REFINEMENT NOTES.                                                   
REMARK   3   NUMBER OF REFINEMENT NOTES :   1                                   
REMARK   3   NOTE   1 : IDEAL-DIST CONTACT TERM CONTACT SETUP. ALL ATOMS        
REMARK   3               HAVE CCP4 ATOM TYPE FROM LIBRARY                       
REMARK   3
REMARK   3  OTHER REFINEMENT REMARKS: NULL
REMARK   3
REMARK 290                                                            
REMARK 290 CRYSTALLOGRAPHIC SYMMETRY                                  
REMARK 290 SYMMETRY OPERATORS FOR SPACE GROUP: P 43 2 2               
REMARK 290                                                            
REMARK 290      SYMOP   SYMMETRY                                      
REMARK 290     NNNMMM   OPERATOR                                      
REMARK 290       1555   X,Y,Z                                         
REMARK 290       2555   -X,-Y,1/2+Z                                   
REMARK 290       3555   -Y,X,3/4+Z                                    
REMARK 290       4555   Y,-X,1/4+Z                                    
REMARK 290       5555   -X,Y,-Z                                       
REMARK 290       6555   X,-Y,1/2-Z                                    
REMARK 290       7555   Y,X,1/4-Z                                     
REMARK 290       8555   -Y,-X,3/4-Z                                   
REMARK 290                                                            
REMARK 290     WHERE NNN -> OPERATOR NUMBER                           
REMARK 290           MMM -> TRANSLATION VECTOR                        
REMARK 290                                                            
REMARK 290 CRYSTALLOGRAPHIC SYMMETRY TRANSFORMATIONS                  
REMARK 290 THE FOLLOWING TRANSFORMATIONS OPERATE ON THE ATOM/HETATM   
REMARK 290 RECORDS IN THIS ENTRY TO PRODUCE CRYSTALLOGRAPHICALLY      
REMARK 290 RELATED MOLECULES.                                         
REMARK 290   SMTRY1   1  1.000000  0.000000  0.000000        0.00000
REMARK 290   SMTRY2   1  0.000000  1.000000  0.000000        0.00000
REMARK 290   SMTRY3   1  0.000000  0.000000  1.000000        0.00000
REMARK 290   SMTRY1   2 -1.000000  0.000000  0.000000        0.00000
REMARK 290   SMTRY2   2  0.000000 -1.000000  0.000000        0.00000
REMARK 290   SMTRY3   2  0.000000  0.000000  1.000000      108.45350
REMARK 290   SMTRY1   3  0.000000 -1.000000  0.000000        0.00000
REMARK 290   SMTRY2   3  1.000000  0.000000  0.000000        0.00000
REMARK 290   SMTRY3   3  0.000000  0.000000  1.000000      162.68025
REMARK 290   SMTRY1   4  0.000000  1.000000  0.000000        0.00000
REMARK 290   SMTRY2   4 -1.000000  0.000000  0.000000        0.00000
REMARK 290   SMTRY3   4  0.000000  0.000000  1.000000       54.22675
REMARK 290   SMTRY1   5 -1.000000  0.000000  0.000000        0.00000
REMARK 290   SMTRY2   5  0.000000  1.000000  0.000000        0.00000
REMARK 290   SMTRY3   5  0.000000  0.000000 -1.000000        0.00000
REMARK 290   SMTRY1   6  1.000000  0.000000  0.000000        0.00000
REMARK 290   SMTRY2   6  0.000000 -1.000000  0.000000        0.00000
REMARK 290   SMTRY3   6  0.000000  0.000000 -1.000000      108.45350
REMARK 290   SMTRY1   7  0.000000  1.000000  0.000000        0.00000
REMARK 290   SMTRY2   7  1.000000  0.000000  0.000000        0.00000
REMARK 290   SMTRY3   7  0.000000  0.000000 -1.000000       54.22675
REMARK 290   SMTRY1   8  0.000000 -1.000000  0.000000        0.00000
REMARK 290   SMTRY2   8 -1.000000  0.000000  0.000000        0.00000
REMARK 290   SMTRY3   8  0.000000  0.000000 -1.000000      162.68025
REMARK 290                                                            
REMARK 290 REMARK: NULL                                               
CRYST1   42.576   42.576  216.907  90.00  90.00  90.00 P 43 2 2                 


$$$$
Zx0945a_ligand
  PyMOL3.0          3D                             0

 14 15  0  0  0  0  0  0  0  0999 V2000
  -10.8320    4.5360  -18.6140 C   0  0  0  0  0  0  0  0  0  0  0  0
   -8.1400    4.7250  -17.8350 N   0  0  0  0  0  0  0  0  0  0  0  0
  -10.2550    3.8890  -17.4800 O   0  0  0  0  0  0  0  0  0  0  0  0
   -9.1040    4.3890  -16.9930 C   0  0  0  0  0  0  0  0  0  0  0  0
   -6.7870    5.3770  -15.9820 N   0  0  0  0  0  0  0  0  0  0  0  0
   -7.0110    5.2040  -17.2930 C   0  0  0  0  0  0  0  0  0  0  0  0
   -5.9850    5.5040  -18.1470 N   0  0  0  0  0  0  0  0  0  0  0  0
   -7.7960    5.0130  -15.1720 C   0  0  0  0  0  0  0  0  0  0  0  0
   -4.5420    7.3980  -19.2730 N   0  0  0  0  0  0  0  0  0  0  0  0
   -9.0030    4.5010  -15.6080 C   0  0  0  0  0  0  0  0  0  0  0  0
   -6.1430    5.5030  -19.6080 C   0  0  0  0  0  0  0  0  0  0  0  0
   -5.3040    6.5930  -20.2670 C   0  0  0  0  0  0  0  0  0  0  0  0
   -3.7560    6.5450  -18.3320 C   0  0  0  0  0  0  0  0  0  0  0  0
   -4.5730    5.3980  -17.7560 C   0  0  0  0  0  0  0  0  0  0  0  0
  1  3  1  0  0  0  0
  2  6  4  0  0  0  0
  3  4  1  0  0  0  0
  2  4  4  0  0  0  0
  4 10  4  0  0  0  0
  5  8  4  0  0  0  0
  5  6  4  0  0  0  0
  6  7  1  0  0  0  0
  7 11  1  0  0  0  0
  7 14  1  0  0  0  0
  8 10  4  0  0  0  0
  9 13  1  0  0  0  0
 11 12  1  0  0  0  0
  9 12  1  0  0  0  0
 13 14  1  0  0  0  0
M  END
>  <pdb_header>
COMPND    XX01ZVNS2B-x0945_B_301_XX01ZVNS2B-x1291+B+301+1


$$$$
Zx0951a
  PyMOL3.0          3D                             0

 12 13  0  0  0  0  0  0  0  0999 V2000
   -8.8270    6.3390  -13.0140 N   0  0  0  0  0  0  0  0  0  0  0  0
  -10.0570    6.9540  -13.5140 C   0  0  0  0  0  0  0  0  0  0  0  0
   -8.6310    4.9880  -13.5510 C   0  0  0  0  0  0  0  0  0  0  0  0
   -6.5060    5.4400  -14.7680 N   0  0  0  0  0  0  0  0  0  0  0  0
   -7.7490    5.0260  -14.7560 C   0  0  0  0  0  0  0  0  0  0  0  0
   -6.0620    5.4170  -16.1010 N   0  0  0  0  0  0  0  0  0  0  0  0
   -7.0680    4.9860  -16.8460 C   0  0  0  0  0  0  0  0  0  0  0  0
   -8.1520    4.7020  -16.0270 N   0  0  0  0  0  0  0  0  0  0  0  0
   -7.2290    4.8060  -18.2350 C   0  0  0  0  0  0  0  0  0  0  0  0
   -8.4260    4.3630  -18.7120 C   0  0  0  0  0  0  0  0  0  0  0  0
   -9.5000    4.0730  -17.8420 C   0  0  0  0  0  0  0  0  0  0  0  0
   -9.3520    4.2340  -16.5110 C   0  0  0  0  0  0  0  0  0  0  0  0
  1  3  1  0  0  0  0
  1  2  1  0  0  0  0
  3  5  1  0  0  0  0
  4  5  4  0  0  0  0
  5  8  4  0  0  0  0
  4  6  4  0  0  0  0
  6  7  4  0  0  0  0
  7  9  4  0  0  0  0
  7  8  4  0  0  0  0
  8 12  4  0  0  0  0
  9 10  4  0  0  0  0
 10 11  4  0  0  0  0
 11 12  4  0  0  0  0
M  END
>  <pdb_header>
HEADER    ----                                    25-MAY-23                     
TITLE     ---                                                                   
EXPDTA    X-RAY DIFFRACTION                                                     
REMARK --------------------- added by autoBUSTER ---------------------------------START
REMARK run at   = Fri Sep 29 18:32:14 BST 2023
REMARK     in   = /dls/labxchem/data/lb32627/lb32627-65/processing/analysis/model_building/XX01ZVNS2B-x0951
REMARK     user = kyf22269
REMARK     cmd  = \
REMARK            /dls_sw/apps/GPhL/BUSTER/20230726/autoBUSTER/bin/linux64/refine \
REMARK            -p \
REMARK            /dls/labxchem/data/lb32627/lb32627-65/processing/analysis/model_building/XX01ZVNS2B-x0951/cootOut/Refi
REMARK            -m \
REMARK            /dls/labxchem/data/lb32627/lb32627-65/processing/analysis/model_building/XX01ZVNS2B-x0951/XX01ZVNS2B-x
REMARK            -l \
REMARK            /dls/labxchem/data/lb32627/lb32627-65/processing/analysis/model_building/XX01ZVNS2B-x0951/Z234898257.c
REMARK            -autoncs -M TLSbasic -d Refine_6
REMARK Files used:
REMARK   PDB              = Refine_6/pdbchk.pdb
REMARK   MTZ              = /dls/labxchem/data/lb32627/lb32627-65/processing/analysis/model_building/XX01ZVNS2B-x0951/XX
REMARK output written to subdirectory = Refine_6
REMARK best refinement for F,SIGF with R/Rfree 0.2224/0.2598
REMARK header records are copied from input PDB file (apart from REMARK 3!)
REMARK --------------------- added by autoBUSTER -----------------------------------END
REMARK --------------------- added by autoBUSTER -------------------------------
REMARK run at   = Wed Jun 14 18:43:53 BST 2023                                  
REMARK     in   = /dls/labxchem/data/lb32627/lb32627-65/processing/analysis/mode
REMARK     user = xau79897                                                      
REMARK     cmd  = \                                                             
REMARK            /dls_sw/apps/GPhL/BUSTER/20230614/autoBUSTER/bin/linux64/refin
REMARK            -p \                                                          
REMARK            /dls/labxchem/data/lb32627/lb32627-65/processing/analysis/mode
REMARK            -m \                                                          
REMARK            /dls/labxchem/data/lb32627/lb32627-65/processing/analysis/mode
REMARK            -l \                                                          
REMARK            /dls/labxchem/data/lb32627/lb32627-65/processing/analysis/mode
REMARK            -autoncs -M TLSbasic StopOnGellySanityCheckError=no -d \      
REMARK            Refine_5                                                      
REMARK Files used:                                                              
REMARK   PDB              = Refine_5/pdbchk.pdb                                 
REMARK   MTZ              = /dls/labxchem/data/lb32627/lb32627-65/processing/ana
REMARK output written to subdirectory = Refine_5                                
REMARK best refinement for F,SIGF with R/Rfree 0.2225/0.2602                    
REMARK header records are copied from input PDB file (apart from REMARK 3!)     
REMARK --------------------- added by autoBUSTER -------------------------------
REMARK --------------------- added by autoBUSTER -------------------------------
REMARK run at   = Sun May 28 20:46:01 BST 2023                                  
REMARK     in   = /dls/labxchem/data/lb32627/lb32627-65/processing/analysis/mode
REMARK     user = xau79897                                                      
REMARK     cmd  = \                                                             
REMARK            /dls_sw/apps/GPhL/BUSTER/20230217/autoBUSTER/bin/linux64/refin
REMARK            -p \                                                          
REMARK            /dls/labxchem/data/lb32627/lb32627-65/processing/analysis/mode
REMARK            -m \                                                          
REMARK            /dls/labxchem/data/lb32627/lb32627-65/processing/analysis/mode
REMARK            -l \                                                          
REMARK            /dls/labxchem/data/lb32627/lb32627-65/processing/analysis/mode
REMARK            -autoncs -M TLSbasic -B user -Gelly gelly.dat \               
REMARK            StopOnGellySanityCheckError=no -d Refine_4                    
REMARK Files used:                                                              
REMARK   PDB              = Refine_4/pdbchk.pdb                                 
REMARK   MTZ              = /dls/labxchem/data/lb32627/lb32627-65/processing/ana
REMARK   Gelly commands       = /dls/labxchem/data/lb32627/lb32627-65/processing
REMARK output written to subdirectory = Refine_4                                
REMARK best refinement for F,SIGF with R/Rfree 0.2239/0.2631                    
REMARK header records are copied from input PDB file (apart from REMARK 3!)     
REMARK --------------------- added by autoBUSTER -------------------------------
REMARK --------------------- added by autoBUSTER -------------------------------
REMARK run at   = Fri May 26 21:44:49 BST 2023                                  
REMARK     in   = /dls/labxchem/data/lb32627/lb32627-65/processing/analysis/mode
REMARK     user = xau79897                                                      
REMARK     cmd  = \                                                             
REMARK            /dls_sw/apps/GPhL/BUSTER/20230217/autoBUSTER/bin/linux64/refin
REMARK            -p \                                                          
REMARK            /dls/labxchem/data/lb32627/lb32627-65/processing/analysis/mode
REMARK            -m \                                                          
REMARK            /dls/labxchem/data/lb32627/lb32627-65/processing/analysis/mode
REMARK            -l \                                                          
REMARK            /dls/labxchem/data/lb32627/lb32627-65/processing/analysis/mode
REMARK            -autoncs -M TLSbasic -WAT -B user -Gelly gelly.dat \          
REMARK            StopOnGellySanityCheckError=no -d Refine_3                    
REMARK Files used:                                                              
REMARK   PDB              = Refine_3/pdbchk.pdb                                 
REMARK   MTZ              = /dls/labxchem/data/lb32627/lb32627-65/processing/ana
REMARK   Gelly commands       = /dls/labxchem/data/lb32627/lb32627-65/processing
REMARK output written to subdirectory = Refine_3                                
REMARK best refinement for F,SIGF with R/Rfree 0.2240/0.2567                    
REMARK header records are copied from input PDB file (apart from REMARK 3!)     
REMARK --------------------- added by autoBUSTER -------------------------------
REMARK --------------------- added by autoBUSTER -------------------------------
REMARK run at   = Fri May 26 13:32:09 BST 2023                                  
REMARK     in   = /dls/labxchem/data/lb32627/lb32627-65/processing/analysis/mode
REMARK     user = xau79897                                                      
REMARK     cmd  = \                                                             
REMARK            /dls_sw/apps/GPhL/BUSTER/20230217/autoBUSTER/bin/linux64/refin
REMARK            -p \                                                          
REMARK            /dls/labxchem/data/lb32627/lb32627-65/processing/analysis/mode
REMARK            -m \                                                          
REMARK            /dls/labxchem/data/lb32627/lb32627-65/processing/analysis/mode
REMARK            -l \                                                          
REMARK            /dls/labxchem/data/lb32627/lb32627-65/processing/analysis/mode
REMARK            -autoncs -M TLSbasic -WAT -B user -Gelly gelly.dat \          
REMARK            StopOnGellySanityCheckError=no -d Refine_2                    
REMARK Files used:                                                              
REMARK   PDB              = Refine_2/pdbchk.pdb                                 
REMARK   MTZ              = /dls/labxchem/data/lb32627/lb32627-65/processing/ana
REMARK   Gelly commands       = /dls/labxchem/data/lb32627/lb32627-65/processing
REMARK output written to subdirectory = Refine_2                                
REMARK best refinement for F,SIGF with R/Rfree 0.2228/0.2588                    
REMARK header records are copied from input PDB file (apart from REMARK 3!)     
REMARK --------------------- added by autoBUSTER -------------------------------
REMARK   2                                                            
REMARK   2 RESOLUTION.    1.71 ANGSTROMS.
REMARK   3
REMARK   3 REFINEMENT.
REMARK   3   PROGRAM     : BUSTER 2.10.4 (26-JUL-2023)
REMARK   3   AUTHORS     : BRICOGNE,BLANC,BRANDL,FLENSBURG,KELLER,
REMARK   3               : PACIOREK,ROVERSI,SHARFF,SMART,VONRHEIN,WOMACK;
REMARK   3               : MATTHEWS,TEN EYCK,TRONRUD
REMARK   3
REMARK   3  DATA USED IN REFINEMENT.
REMARK   3   RESOLUTION RANGE HIGH (ANGSTROMS) : 1.707
REMARK   3   RESOLUTION RANGE LOW  (ANGSTROMS) : 54.08
REMARK   3   DATA CUTOFF            (SIGMA(F)) : 0.000
REMARK   3   COMPLETENESS FOR RANGE        (%) : 95.7
REMARK   3   NUMBER OF REFLECTIONS             : 21869
REMARK   3
REMARK   3  FIT TO DATA USED IN REFINEMENT.
REMARK   3   CROSS-VALIDATION METHOD          : THROUGHOUT
REMARK   3   FREE R VALUE TEST SET SELECTION  : RANDOM
REMARK   3   R VALUE     (WORKING + TEST SET) : 0.2243
REMARK   3   R VALUE            (WORKING SET) : 0.2224
REMARK   3   FREE R VALUE                     : 0.2598
REMARK   3   FREE R VALUE TEST SET SIZE   (%) : 5.050
REMARK   3   FREE R VALUE TEST SET COUNT      : 1104
REMARK   3   ESTIMATED ERROR OF FREE R VALUE  : NULL
REMARK   3
REMARK   3  FIT IN THE HIGHEST RESOLUTION BIN.
REMARK   3   TOTAL NUMBER OF BINS USED           : 51
REMARK   3   BIN RESOLUTION RANGE HIGH       (A) : 1.71
REMARK   3   BIN RESOLUTION RANGE LOW        (A) : 1.72
REMARK   3   BIN COMPLETENESS (WORKING+TEST) (%) : 83.80
REMARK   3   REFLECTIONS IN BIN   (WORKING+TEST) : 438
REMARK   3   BIN R VALUE          (WORKING+TEST) : 0.3843
REMARK   3   REFLECTIONS IN BIN    (WORKING SET) : 414
REMARK   3   BIN R VALUE           (WORKING SET) : 0.3864
REMARK   3   BIN FREE R VALUE                    : 0.3472
REMARK   3   BIN FREE R VALUE TEST SET SIZE  (%) : 5.48
REMARK   3   BIN FREE R VALUE TEST SET COUNT     : 24
REMARK   3   ESTIMATED ERROR OF BIN FREE R VALUE : NULL
REMARK   3
REMARK   3  NUMBER OF NON-HYDROGEN ATOMS USED IN REFINEMENT.
REMARK   3   PROTEIN ATOMS            : 1476
REMARK   3   NUCLEIC ACID ATOMS       : 0
REMARK   3   HETEROGEN ATOMS          : 16
REMARK   3   SOLVENT ATOMS            : 136
REMARK   3
REMARK   3  B VALUES.
REMARK   3   FROM WILSON PLOT           (A**2) : 26.23
REMARK   3   MEAN B VALUE      (OVERALL, A**2) : 41.06
REMARK   3   OVERALL ANISOTROPIC B VALUE.
REMARK   3    B11 (A**2) : -3.87290
REMARK   3    B22 (A**2) : -3.87290
REMARK   3    B33 (A**2) : 7.74570
REMARK   3    B12 (A**2) : 0.00000
REMARK   3    B13 (A**2) : 0.00000
REMARK   3    B23 (A**2) : 0.00000
REMARK   3
REMARK   3  ESTIMATED COORDINATE ERROR.
REMARK   3   ESD FROM LUZZATI PLOT                    (A) : 0.28
REMARK   3   DPI (BLOW EQ-10) BASED ON R VALUE        (A) : 0.140
REMARK   3   DPI (BLOW EQ-9) BASED ON FREE R VALUE    (A) : 0.131
REMARK   3   DPI (CRUICKSHANK) BASED ON R VALUE       (A) : 0.129
REMARK   3   DPI (CRUICKSHANK) BASED ON FREE R VALUE  (A) : 0.125
REMARK   3
REMARK   3   REFERENCES: BLOW, D. (2002) ACTA CRYST D58, 792-797
REMARK   3               CRUICKSHANK, D.W.J. (1999) ACTA CRYST D55, 583-601
REMARK   3
REMARK   3  CORRELATION COEFFICIENTS.
REMARK   3   CORRELATION COEFFICIENT FO-FC      : 0.946
REMARK   3   CORRELATION COEFFICIENT FO-FC FREE : 0.935
REMARK   3
REMARK   3  X-RAY WEIGHT : 5.66
REMARK   3
REMARK   3  GEOMETRY FUNCTION.                                                  
REMARK   3   RESTRAINT LIBRARIES.                                               
REMARK   3    NUMBER OF LIBRARIES USED :   9                                    
REMARK   3    LIBRARY  1 : protgeo_eh99.dat (V1.6.4.20) 20220523  STANDARD      
REMARK   3                 AMINO ACID DICTIONARY. BONDS AND ANGLES FROM         
REMARK   3                 ENGH AND HUBER EH99. OTHER VALUES BASED ON           
REMARK   3                 PREVIOUS TNT OR TAKEN FROM CCP4. INCLUDES            
REMARK   3                 HYDROGEN ATOMS.                                      
REMARK   3    LIBRARY  2 : exoticaa.dat (V1.3.4.16) 20220523  COLLECTION        
REMARK   3                 OF NON-STANDARD AMINO ACIDS, MAINLY EH91             
REMARK   3                 WITHOUT IDEAL DISTANCE INFO                          
REMARK   3    LIBRARY  3 : nuclgeo.dat (V1.13.4.9) 20221011                     
REMARK   3    LIBRARY  4 : bcorrel.dat (V1.15.10.2) 20190616                    
REMARK   3    LIBRARY  5 : contact.dat (V1.15.12.10) 20191121                   
REMARK   3    LIBRARY  6 : idealdist_contact.dat (V1.3.4.14) 20230724           
REMARK   3                 IDEAL-DISTANCE CONTACT TERM DATA AS USED IN          
REMARK   3                 PROLSQ. VALUES USED HERE ARE BASEd ON DATA           
REMARK   3                 HARVESTING OF PDB AS OF 20190109                     
REMARK   3    LIBRARY  7 : restraints for LIG (unknown) from cif                
REMARK   3                 dictionary Z234898257.cif; generated by GRADE        
REMARK   3                 1.2.21 (Feb 03 2022) from SMILES                     
REMARK   3                 CNCc1nnc2ccccn12 using MOGUL 1.8.5(274361), CSD      
REMARK   3                 as541be, with quantum mechanics RM1                  
REMARK   3    LIBRARY  8 : restraints for DMS (DIMETHYL SULFOXIDE) from         
REMARK   3                 cif dictionary DMS.cif; generated by grade2          
REMARK   3                 version 1.1.0a7 from                                 
REMARK   3                 PDB_chemical_components_definition_file              
REMARK   3                 ftp://ftp.ebi.ac.uk/pub/databases/msd/pdbechem_v     
REMARK   3                 2/D/DMS/DMS.cif using RDKit 2021.03.4                
REMARK   3                 ((DatabaseID PDB-DMS))                               
REMARK   3    LIBRARY  9 : assume.dat (V1.9.4.3) 20221011                       
REMARK   3                                                                      
REMARK   3   NUMBER OF GEOMETRIC FUNCTION TERMS DEFINED : 15                    
REMARK   3   TERM                          COUNT    WEIGHT   FUNCTION.          
REMARK   3    BOND LENGTHS              :   1602 ;   2.00 ;  HARMONIC           
REMARK   3    BOND ANGLES               :   2186 ;   2.00 ;  HARMONIC           
REMARK   3    TORSION ANGLES            :    540 ;   2.00 ;  SINUSOIDAL         
REMARK   3    TRIGONAL CARBON PLANES    :   NULL ;   NULL ;  NULL               
REMARK   3    GENERAL PLANES            :    288 ;   5.00 ;  HARMONIC           
REMARK   3    ISOTROPIC THERMAL FACTORS :   1602 ;  10.00 ;  HARMONIC           
REMARK   3    BAD NON-BONDED CONTACTS   :   NULL ;   NULL ;  NULL               
REMARK   3    IMPROPER TORSIONS         :   NULL ;   NULL ;  NULL               
REMARK   3    PSEUDOROTATION ANGLES     :   NULL ;   NULL ;  NULL               
REMARK   3    CHIRAL IMPROPER TORSION   :    198 ;   5.00 ;  SEMIHARMONIC       
REMARK   3    SUM OF OCCUPANCIES        :   NULL ;   NULL ;  NULL               
REMARK   3    UTILITY DISTANCES         :   NULL ;   NULL ;  NULL               
REMARK   3    UTILITY ANGLES            :   NULL ;   NULL ;  NULL               
REMARK   3    UTILITY TORSION           :   NULL ;   NULL ;  NULL               
REMARK   3    IDEAL-DIST CONTACT TERM   :   1347 ;   4.00 ;  SEMIHARMONIC       
REMARK   3                                                                      
REMARK   3   RMS DEVIATIONS FROM IDEAL VALUES.                                  
REMARK   3   BOND LENGTHS                       (A) : 0.009                     
REMARK   3   BOND ANGLES                  (DEGREES) : 0.99                      
REMARK   3   PEPTIDE OMEGA TORSION ANGLES (DEGREES) : 3.76                      
REMARK   3   OTHER TORSION ANGLES         (DEGREES) : 14.94                     
REMARK   3                                                                      
REMARK   3   SIMILARITY.                                                        
REMARK   3    NCS.                                                              
REMARK   3     NCS METHOD: NONE                                                 
REMARK   3    TARGET RESTRAINTS.                                                
REMARK   3     TARGET REPRESENTATION : NONE                                     
REMARK   3     TARGET STRUCTURE : NULL                                          
REMARK   3                                                                      
REMARK   3  TLS DETAILS.                                                        
REMARK   3   NUMBER OF TLS GROUPS  :            2                               
REMARK   3                                                                      
REMARK   3   TLS GROUP :            1                                           
REMARK   3    SET : { A|* }                                                     
REMARK   3    ORIGIN FOR THE GROUP (A):  -13.7728   -1.6947  -19.4148           
REMARK   3    T TENSOR                                                          
REMARK   3     T11:    0.0682 T22:    0.0364                                    
REMARK   3     T33:   -0.1864 T12:    0.1924                                    
REMARK   3     T13:    0.1235 T23:    0.1264                                    
REMARK   3    L TENSOR                                                          
REMARK   3     L11:    2.8300 L22:    2.8947                                    
REMARK   3     L33:    3.1320 L12:   -1.6287                                    
REMARK   3     L13:    0.4174 L23:    0.7226                                    
REMARK   3    S TENSOR                                                          
REMARK   3     S11:    0.4955 S12:    0.4645 S13:    0.3830                     
REMARK   3     S21:   -0.5015 S22:   -0.4542 S23:   -0.3143                     
REMARK   3     S31:   -0.1077 S32:    0.5421 S33:   -0.0413                     
REMARK   3                                                                      
REMARK   3   TLS GROUP :            2                                           
REMARK   3    SET : { B|* }                                                     
REMARK   3    ORIGIN FOR THE GROUP (A):  -18.3981    0.8928  -15.4460           
REMARK   3    T TENSOR                                                          
REMARK   3     T11:    0.1367 T22:    0.0587                                    
REMARK   3     T33:   -0.0683 T12:    0.1718                                    
REMARK   3     T13:    0.0652 T23:    0.0547                                    
REMARK   3    L TENSOR                                                          
REMARK   3     L11:    1.1384 L22:    0.8058                                    
REMARK   3     L33:    1.8654 L12:   -0.6394                                    
REMARK   3     L13:    0.7526 L23:   -0.1292                                    
REMARK   3    S TENSOR                                                          
REMARK   3     S11:    0.3334 S12:    0.1855 S13:    0.1436                     
REMARK   3     S21:   -0.1159 S22:   -0.3378 S23:    0.0810                     
REMARK   3     S31:    0.0557 S32:    0.2122 S33:    0.0044                     
REMARK   3                                                                      
REMARK   3  REFINEMENT NOTES.                                                   
REMARK   3   NUMBER OF REFINEMENT NOTES :   1                                   
REMARK   3   NOTE   1 : IDEAL-DIST CONTACT TERM CONTACT SETUP. ALL ATOMS        
REMARK   3               HAVE CCP4 ATOM TYPE FROM LIBRARY                       
REMARK   3
REMARK   3  OTHER REFINEMENT REMARKS: NULL
REMARK   3
REMARK 290                                                            
REMARK 290 CRYSTALLOGRAPHIC SYMMETRY                                  
REMARK 290 SYMMETRY OPERATORS FOR SPACE GROUP: P 43 2 2               
REMARK 290                                                            
REMARK 290      SYMOP   SYMMETRY                                      
REMARK 290     NNNMMM   OPERATOR                                      
REMARK 290       1555   X,Y,Z                                         
REMARK 290       2555   -X,-Y,1/2+Z                                   
REMARK 290       3555   -Y,X,3/4+Z                                    
REMARK 290       4555   Y,-X,1/4+Z                                    
REMARK 290       5555   -X,Y,-Z                                       
REMARK 290       6555   X,-Y,1/2-Z                                    
REMARK 290       7555   Y,X,1/4-Z                                     
REMARK 290       8555   -Y,-X,3/4-Z                                   
REMARK 290                                                            
REMARK 290     WHERE NNN -> OPERATOR NUMBER                           
REMARK 290           MMM -> TRANSLATION VECTOR                        
REMARK 290                                                            
REMARK 290 CRYSTALLOGRAPHIC SYMMETRY TRANSFORMATIONS                  
REMARK 290 THE FOLLOWING TRANSFORMATIONS OPERATE ON THE ATOM/HETATM   
REMARK 290 RECORDS IN THIS ENTRY TO PRODUCE CRYSTALLOGRAPHICALLY      
REMARK 290 RELATED MOLECULES.                                         
REMARK 290   SMTRY1   1  1.000000  0.000000  0.000000        0.00000
REMARK 290   SMTRY2   1  0.000000  1.000000  0.000000        0.00000
REMARK 290   SMTRY3   1  0.000000  0.000000  1.000000        0.00000
REMARK 290   SMTRY1   2 -1.000000  0.000000  0.000000        0.00000
REMARK 290   SMTRY2   2  0.000000 -1.000000  0.000000        0.00000
REMARK 290   SMTRY3   2  0.000000  0.000000  1.000000      108.15550
REMARK 290   SMTRY1   3  0.000000 -1.000000  0.000000        0.00000
REMARK 290   SMTRY2   3  1.000000  0.000000  0.000000        0.00000
REMARK 290   SMTRY3   3  0.000000  0.000000  1.000000      162.23325
REMARK 290   SMTRY1   4  0.000000  1.000000  0.000000        0.00000
REMARK 290   SMTRY2   4 -1.000000  0.000000  0.000000        0.00000
REMARK 290   SMTRY3   4  0.000000  0.000000  1.000000       54.07775
REMARK 290   SMTRY1   5 -1.000000  0.000000  0.000000        0.00000
REMARK 290   SMTRY2   5  0.000000  1.000000  0.000000        0.00000
REMARK 290   SMTRY3   5  0.000000  0.000000 -1.000000        0.00000
REMARK 290   SMTRY1   6  1.000000  0.000000  0.000000        0.00000
REMARK 290   SMTRY2   6  0.000000 -1.000000  0.000000        0.00000
REMARK 290   SMTRY3   6  0.000000  0.000000 -1.000000      108.15550
REMARK 290   SMTRY1   7  0.000000  1.000000  0.000000        0.00000
REMARK 290   SMTRY2   7  1.000000  0.000000  0.000000        0.00000
REMARK 290   SMTRY3   7  0.000000  0.000000 -1.000000       54.07775
REMARK 290   SMTRY1   8  0.000000 -1.000000  0.000000        0.00000
REMARK 290   SMTRY2   8 -1.000000  0.000000  0.000000        0.00000
REMARK 290   SMTRY3   8  0.000000  0.000000 -1.000000      162.23325
REMARK 290                                                            
REMARK 290 REMARK: NULL                                               
CRYST1   42.593   42.593  216.311  90.00  90.00  90.00 P 43 2 2                 


$$$$
Zx0951a_ligand
  PyMOL3.0          3D                             0

 12 13  0  0  0  0  0  0  0  0999 V2000
  -10.0570    6.9540  -13.5140 C   0  0  0  0  0  0  0  0  0  0  0  0
   -8.8270    6.3390  -13.0140 N   0  0  0  0  0  0  0  0  0  0  0  0
   -8.6310    4.9880  -13.5510 C   0  0  0  0  0  0  0  0  0  0  0  0
   -8.1520    4.7020  -16.0270 N   0  0  0  0  0  0  0  0  0  0  0  0
   -7.7490    5.0260  -14.7560 C   0  0  0  0  0  0  0  0  0  0  0  0
   -6.0620    5.4170  -16.1010 N   0  0  0  0  0  0  0  0  0  0  0  0
   -7.0680    4.9860  -16.8460 C   0  0  0  0  0  0  0  0  0  0  0  0
   -6.5060    5.4400  -14.7680 N   0  0  0  0  0  0  0  0  0  0  0  0
   -9.3520    4.2340  -16.5110 C   0  0  0  0  0  0  0  0  0  0  0  0
   -9.5000    4.0730  -17.8420 C   0  0  0  0  0  0  0  0  0  0  0  0
   -8.4260    4.3630  -18.7120 C   0  0  0  0  0  0  0  0  0  0  0  0
   -7.2290    4.8060  -18.2350 C   0  0  0  0  0  0  0  0  0  0  0  0
  1  2  1  0  0  0  0
  2  3  1  0  0  0  0
  3  5  1  0  0  0  0
  4  7  4  0  0  0  0
  4  9  4  0  0  0  0
  4  5  4  0  0  0  0
  5  8  4  0  0  0  0
  6  8  4  0  0  0  0
  6  7  4  0  0  0  0
  7 12  4  0  0  0  0
  9 10  4  0  0  0  0
 10 11  4  0  0  0  0
 11 12  4  0  0  0  0
M  END
>  <pdb_header>
COMPND    XX01ZVNS2B-x0951_B_301_XX01ZVNS2B-x1291+B+301+1


$$$$
Zx0969a
  PyMOL3.0          3D                             0

 20 22  0  0  0  0  0  0  0  0999 V2000
   -8.8710    5.4870   -8.0940 N   0  0  0  0  0  0  0  0  0  0  0  0
   -8.4800    4.9990  -11.7660 C   0  0  0  0  0  0  0  0  0  0  0  0
   -8.6480    4.9000  -10.2680 C   0  0  0  0  0  0  0  0  0  0  0  0
   -8.9410    4.1330   -8.2420 N   0  0  0  0  0  0  0  0  0  0  0  0
   -8.6910    5.9440   -9.3250 C   0  0  0  0  0  0  0  0  0  0  0  0
   -8.7430    1.4190   -8.7280 N   0  0  0  0  0  0  0  0  0  0  0  0
   -9.1560    3.2320   -7.1030 C   0  0  0  0  0  0  0  0  0  0  0  0
   -9.6000    1.8720   -7.6120 C   0  0  0  0  0  0  0  0  0  0  0  0
   -8.8540    2.3060   -9.8920 C   0  0  0  0  0  0  0  0  0  0  0  0
   -8.8080    3.7600   -9.5320 C   0  0  0  0  0  0  0  0  0  0  0  0
   -7.6990    5.1960  -15.5370 N   0  0  0  0  0  0  0  0  0  0  0  0
   -9.9160    3.9640  -18.2410 C   0  0  0  0  0  0  0  0  0  0  0  0
   -8.8210    4.4610  -17.3550 C   0  0  0  0  0  0  0  0  0  0  0  0
   -6.9050    5.2280  -16.6490 N   0  0  0  0  0  0  0  0  0  0  0  0
   -8.8560    4.7240  -15.9710 C   0  0  0  0  0  0  0  0  0  0  0  0
   -5.5820    5.4530  -19.0710 N   0  0  0  0  0  0  0  0  0  0  0  0
   -5.5140    5.6950  -16.6080 C   0  0  0  0  0  0  0  0  0  0  0  0
   -4.7850    5.2250  -17.8490 C   0  0  0  0  0  0  0  0  0  0  0  0
   -6.8280    4.6830  -19.0510 C   0  0  0  0  0  0  0  0  0  0  0  0
   -7.5560    4.7850  -17.7440 C   0  0  0  0  0  0  0  0  0  0  0  0
  1  5  4  0  0  0  0
  2  3  1  0  0  0  0
  3  5  4  0  0  0  0
  3 10  4  0  0  0  0
  1  4  4  0  0  0  0
  4  7  1  0  0  0  0
  6  8  1  0  0  0  0
  7  8  1  0  0  0  0
  6  9  1  0  0  0  0
  4 10  4  0  0  0  0
  9 10  1  0  0  0  0
 11 15  4  0  0  0  0
 12 13  1  0  0  0  0
 13 15  4  0  0  0  0
 13 20  4  0  0  0  0
 11 14  4  0  0  0  0
 14 17  1  0  0  0  0
 16 18  1  0  0  0  0
 17 18  1  0  0  0  0
 16 19  1  0  0  0  0
 14 20  4  0  0  0  0
 19 20  1  0  0  0  0
M  END
>  <pdb_header>
HEADER    ----                                    23-FEB-23                     
TITLE     ---                                                                   
EXPDTA    X-RAY DIFFRACTION                                                     
REMARK --------------------- added by autoBUSTER ---------------------------------START
REMARK run at   = Mon Sep  4 13:31:20 BST 2023
REMARK     in   = /dls/labxchem/data/lb32627/lb32627-65/processing/analysis/model_building/XX01ZVNS2B-x0969
REMARK     user = kyf22269
REMARK     cmd  = \
REMARK            /dls_sw/apps/GPhL/BUSTER/20230726/autoBUSTER/bin/linux64/refine \
REMARK            -p \
REMARK            /dls/labxchem/data/lb32627/lb32627-65/processing/analysis/model_building/XX01ZVNS2B-x0969/cootOut/Refi
REMARK            -m \
REMARK            /dls/labxchem/data/lb32627/lb32627-65/processing/analysis/model_building/XX01ZVNS2B-x0969/XX01ZVNS2B-x
REMARK            -l \
REMARK            /dls/labxchem/data/lb32627/lb32627-65/processing/analysis/model_building/XX01ZVNS2B-x0969/Z2509342103.
REMARK            -autoncs -M TLSbasic -d Refine_8
REMARK Files used:
REMARK   PDB              = Refine_8/pdbchk.pdb
REMARK   MTZ              = /dls/labxchem/data/lb32627/lb32627-65/processing/analysis/model_building/XX01ZVNS2B-x0969/XX
REMARK output written to subdirectory = Refine_8
REMARK best refinement for F,SIGF with R/Rfree 0.2229/0.2394
REMARK header records are copied from input PDB file (apart from REMARK 3!)
REMARK --------------------- added by autoBUSTER -----------------------------------END
REMARK --------------------- added by autoBUSTER -------------------------------
REMARK run at   = Wed Jun 14 20:47:54 BST 2023                                  
REMARK     in   = /dls/labxchem/data/lb32627/lb32627-65/processing/analysis/mode
REMARK     user = xau79897                                                      
REMARK     cmd  = \                                                             
REMARK            /dls_sw/apps/GPhL/BUSTER/20230614/autoBUSTER/bin/linux64/refin
REMARK            -p \                                                          
REMARK            /dls/labxchem/data/lb32627/lb32627-65/processing/analysis/mode
REMARK            -m \                                                          
REMARK            /dls/labxchem/data/lb32627/lb32627-65/processing/analysis/mode
REMARK            -l \                                                          
REMARK            /dls/labxchem/data/lb32627/lb32627-65/processing/analysis/mode
REMARK            -autoncs -M TLSbasic -WAT -B user -Gelly gelly.dat \          
REMARK            StopOnGellySanityCheckError=no -d Refine_7                    
REMARK Files used:                                                              
REMARK   PDB              = Refine_7/pdbchk.pdb                                 
REMARK   MTZ              = /dls/labxchem/data/lb32627/lb32627-65/processing/ana
REMARK   Gelly commands       = /dls/labxchem/data/lb32627/lb32627-65/processing
REMARK output written to subdirectory = Refine_7                                
REMARK best refinement for F,SIGF with R/Rfree 0.2233/0.2388                    
REMARK header records are copied from input PDB file (apart from REMARK 3!)     
REMARK --------------------- added by autoBUSTER -------------------------------
REMARK --------------------- added by autoBUSTER -------------------------------
REMARK run at   = Wed Jun 14 18:48:18 BST 2023                                  
REMARK     in   = /dls/labxchem/data/lb32627/lb32627-65/processing/analysis/mode
REMARK     user = xau79897                                                      
REMARK     cmd  = \                                                             
REMARK            /dls_sw/apps/GPhL/BUSTER/20230614/autoBUSTER/bin/linux64/refin
REMARK            -p \                                                          
REMARK            /dls/labxchem/data/lb32627/lb32627-65/processing/analysis/mode
REMARK            -m \                                                          
REMARK            /dls/labxchem/data/lb32627/lb32627-65/processing/analysis/mode
REMARK            -l \                                                          
REMARK            /dls/labxchem/data/lb32627/lb32627-65/processing/analysis/mode
REMARK            -autoncs -M TLSbasic -B user -Gelly gelly.dat \               
REMARK            StopOnGellySanityCheckError=no -d Refine_6                    
REMARK Files used:                                                              
REMARK   PDB              = Refine_6/pdbchk.pdb                                 
REMARK   MTZ              = /dls/labxchem/data/lb32627/lb32627-65/processing/ana
REMARK   Gelly commands       = /dls/labxchem/data/lb32627/lb32627-65/processing
REMARK output written to subdirectory = Refine_6                                
REMARK best refinement for F,SIGF with R/Rfree 0.2381/0.2512                    
REMARK header records are copied from input PDB file (apart from REMARK 3!)     
REMARK --------------------- added by autoBUSTER -------------------------------
REMARK --------------------- added by autoBUSTER -------------------------------
REMARK run at   = Thu Jun  8 18:20:17 BST 2023                                  
REMARK     in   = /dls/labxchem/data/lb32627/lb32627-65/processing/analysis/mode
REMARK     user = xau79897                                                      
REMARK     cmd  = \                                                             
REMARK            /dls_sw/apps/GPhL/BUSTER/20230217/autoBUSTER/bin/linux64/refin
REMARK            -p \                                                          
REMARK            /dls/labxchem/data/lb32627/lb32627-65/processing/analysis/mode
REMARK            -m \                                                          
REMARK            /dls/labxchem/data/lb32627/lb32627-65/processing/analysis/mode
REMARK            -l \                                                          
REMARK            /dls/labxchem/data/lb32627/lb32627-65/processing/analysis/mode
REMARK            -autoncs -M TLSbasic -d Refine_5                              
REMARK Files used:                                                              
REMARK   PDB              = Refine_5/pdbchk.pdb                                 
REMARK   MTZ              = /dls/labxchem/data/lb32627/lb32627-65/processing/ana
REMARK output written to subdirectory = Refine_5                                
REMARK best refinement for F,SIGF with R/Rfree 0.2382/0.2482                    
REMARK header records are copied from input PDB file (apart from REMARK 3!)     
REMARK --------------------- added by autoBUSTER -------------------------------
REMARK   2                                                            
REMARK   2 RESOLUTION.    1.45 ANGSTROMS.
REMARK   3
REMARK   3 REFINEMENT.
REMARK   3   PROGRAM     : BUSTER 2.10.4 (26-JUL-2023)
REMARK   3   AUTHORS     : BRICOGNE,BLANC,BRANDL,FLENSBURG,KELLER,
REMARK   3               : PACIOREK,ROVERSI,SHARFF,SMART,VONRHEIN,WOMACK;
REMARK   3               : MATTHEWS,TEN EYCK,TRONRUD
REMARK   3
REMARK   3  DATA USED IN REFINEMENT.
REMARK   3   RESOLUTION RANGE HIGH (ANGSTROMS) : 1.452
REMARK   3   RESOLUTION RANGE LOW  (ANGSTROMS) : 15.19
REMARK   3   DATA CUTOFF            (SIGMA(F)) : 0.000
REMARK   3   COMPLETENESS FOR RANGE        (%) : 92.2
REMARK   3   NUMBER OF REFLECTIONS             : 33781
REMARK   3
REMARK   3  FIT TO DATA USED IN REFINEMENT.
REMARK   3   CROSS-VALIDATION METHOD          : THROUGHOUT
REMARK   3   FREE R VALUE TEST SET SELECTION  : RANDOM
REMARK   3   R VALUE     (WORKING + TEST SET) : 0.2237
REMARK   3   R VALUE            (WORKING SET) : 0.2229
REMARK   3   FREE R VALUE                     : 0.2394
REMARK   3   FREE R VALUE TEST SET SIZE   (%) : 5.050
REMARK   3   FREE R VALUE TEST SET COUNT      : 1707
REMARK   3   ESTIMATED ERROR OF FREE R VALUE  : NULL
REMARK   3
REMARK   3  FIT IN THE HIGHEST RESOLUTION BIN.
REMARK   3   TOTAL NUMBER OF BINS USED           : 51
REMARK   3   BIN RESOLUTION RANGE HIGH       (A) : 1.45
REMARK   3   BIN RESOLUTION RANGE LOW        (A) : 1.50
REMARK   3   BIN COMPLETENESS (WORKING+TEST) (%) : 19.45
REMARK   3   REFLECTIONS IN BIN   (WORKING+TEST) : 676
REMARK   3   BIN R VALUE          (WORKING+TEST) : 0.5260
REMARK   3   REFLECTIONS IN BIN    (WORKING SET) : 641
REMARK   3   BIN R VALUE           (WORKING SET) : 0.5275
REMARK   3   BIN FREE R VALUE                    : 0.5019
REMARK   3   BIN FREE R VALUE TEST SET SIZE  (%) : 5.18
REMARK   3   BIN FREE R VALUE TEST SET COUNT     : 35
REMARK   3   ESTIMATED ERROR OF BIN FREE R VALUE : NULL
REMARK   3
REMARK   3  NUMBER OF NON-HYDROGEN ATOMS USED IN REFINEMENT.
REMARK   3   PROTEIN ATOMS            : 1476
REMARK   3   NUCLEIC ACID ATOMS       : 0
REMARK   3   HETEROGEN ATOMS          : 24
REMARK   3   SOLVENT ATOMS            : 127
REMARK   3
REMARK   3  B VALUES.
REMARK   3   FROM WILSON PLOT           (A**2) : 30.14
REMARK   3   MEAN B VALUE      (OVERALL, A**2) : 45.25
REMARK   3   OVERALL ANISOTROPIC B VALUE.
REMARK   3    B11 (A**2) : -5.90050
REMARK   3    B22 (A**2) : -5.90050
REMARK   3    B33 (A**2) : 11.80090
REMARK   3    B12 (A**2) : 0.00000
REMARK   3    B13 (A**2) : 0.00000
REMARK   3    B23 (A**2) : 0.00000
REMARK   3
REMARK   3  ESTIMATED COORDINATE ERROR.
REMARK   3   ESD FROM LUZZATI PLOT                    (A) : 0.28
REMARK   3   DPI (BLOW EQ-10) BASED ON R VALUE        (A) : 0.087
REMARK   3   DPI (BLOW EQ-9) BASED ON FREE R VALUE    (A) : 0.082
REMARK   3   DPI (CRUICKSHANK) BASED ON R VALUE       (A) : 0.082
REMARK   3   DPI (CRUICKSHANK) BASED ON FREE R VALUE  (A) : 0.079
REMARK   3
REMARK   3   REFERENCES: BLOW, D. (2002) ACTA CRYST D58, 792-797
REMARK   3               CRUICKSHANK, D.W.J. (1999) ACTA CRYST D55, 583-601
REMARK   3
REMARK   3  CORRELATION COEFFICIENTS.
REMARK   3   CORRELATION COEFFICIENT FO-FC      : 0.949
REMARK   3   CORRELATION COEFFICIENT FO-FC FREE : 0.951
REMARK   3
REMARK   3  X-RAY WEIGHT : 5.35
REMARK   3
REMARK   3  GEOMETRY FUNCTION.                                                  
REMARK   3   RESTRAINT LIBRARIES.                                               
REMARK   3    NUMBER OF LIBRARIES USED :   9                                    
REMARK   3    LIBRARY  1 : protgeo_eh99.dat (V1.6.4.20) 20220523  STANDARD      
REMARK   3                 AMINO ACID DICTIONARY. BONDS AND ANGLES FROM         
REMARK   3                 ENGH AND HUBER EH99. OTHER VALUES BASED ON           
REMARK   3                 PREVIOUS TNT OR TAKEN FROM CCP4. INCLUDES            
REMARK   3                 HYDROGEN ATOMS.                                      
REMARK   3    LIBRARY  2 : exoticaa.dat (V1.3.4.16) 20220523  COLLECTION        
REMARK   3                 OF NON-STANDARD AMINO ACIDS, MAINLY EH91             
REMARK   3                 WITHOUT IDEAL DISTANCE INFO                          
REMARK   3    LIBRARY  3 : nuclgeo.dat (V1.13.4.9) 20221011                     
REMARK   3    LIBRARY  4 : bcorrel.dat (V1.15.10.2) 20190616                    
REMARK   3    LIBRARY  5 : contact.dat (V1.15.12.10) 20191121                   
REMARK   3    LIBRARY  6 : idealdist_contact.dat (V1.3.4.14) 20230724           
REMARK   3                 IDEAL-DISTANCE CONTACT TERM DATA AS USED IN          
REMARK   3                 PROLSQ. VALUES USED HERE ARE BASEd ON DATA           
REMARK   3                 HARVESTING OF PDB AS OF 20190109                     
REMARK   3    LIBRARY  7 : restraints for LIG (unknown) from cif                
REMARK   3                 dictionary Z2509342103.cif; generated by GRADE       
REMARK   3                 1.2.21 (Feb 03 2022) from SMILES Cc1cnn2CCNCc12      
REMARK   3                 using MOGUL 1.8.5(274361), CSD as541be, with         
REMARK   3                 quantum mechanics RM1                                
REMARK   3    LIBRARY  8 : restraints for DMS (DIMETHYL SULFOXIDE) from         
REMARK   3                 cif dictionary DMS.cif; generated by grade2          
REMARK   3                 version 1.1.0a7 from                                 
REMARK   3                 PDB_chemical_components_definition_file              
REMARK   3                 ftp://ftp.ebi.ac.uk/pub/databases/msd/pdbechem_v     
REMARK   3                 2/D/DMS/DMS.cif using RDKit 2021.03.4                
REMARK   3                 ((DatabaseID PDB-DMS))                               
REMARK   3    LIBRARY  9 : assume.dat (V1.9.4.3) 20221011                       
REMARK   3                                                                      
REMARK   3   NUMBER OF GEOMETRIC FUNCTION TERMS DEFINED : 15                    
REMARK   3   TERM                          COUNT    WEIGHT   FUNCTION.          
REMARK   3    BOND LENGTHS              :   1568 ;   2.00 ;  HARMONIC           
REMARK   3    BOND ANGLES               :   2135 ;   2.00 ;  HARMONIC           
REMARK   3    TORSION ANGLES            :    540 ;   2.00 ;  SINUSOIDAL         
REMARK   3    TRIGONAL CARBON PLANES    :   NULL ;   NULL ;  NULL               
REMARK   3    GENERAL PLANES            :    284 ;   5.00 ;  HARMONIC           
REMARK   3    ISOTROPIC THERMAL FACTORS :   1568 ;  10.00 ;  HARMONIC           
REMARK   3    BAD NON-BONDED CONTACTS   :   NULL ;   NULL ;  NULL               
REMARK   3    IMPROPER TORSIONS         :   NULL ;   NULL ;  NULL               
REMARK   3    PSEUDOROTATION ANGLES     :   NULL ;   NULL ;  NULL               
REMARK   3    CHIRAL IMPROPER TORSION   :    196 ;   5.00 ;  SEMIHARMONIC       
REMARK   3    SUM OF OCCUPANCIES        :   NULL ;   NULL ;  NULL               
REMARK   3    UTILITY DISTANCES         :   NULL ;   NULL ;  NULL               
REMARK   3    UTILITY ANGLES            :   NULL ;   NULL ;  NULL               
REMARK   3    UTILITY TORSION           :   NULL ;   NULL ;  NULL               
REMARK   3    IDEAL-DIST CONTACT TERM   :   1276 ;   4.00 ;  SEMIHARMONIC       
REMARK   3                                                                      
REMARK   3   RMS DEVIATIONS FROM IDEAL VALUES.                                  
REMARK   3   BOND LENGTHS                       (A) : 0.011                     
REMARK   3   BOND ANGLES                  (DEGREES) : 1.06                      
REMARK   3   PEPTIDE OMEGA TORSION ANGLES (DEGREES) : 3.95                      
REMARK   3   OTHER TORSION ANGLES         (DEGREES) : 15.58                     
REMARK   3                                                                      
REMARK   3   SIMILARITY.                                                        
REMARK   3    NCS.                                                              
REMARK   3     NCS METHOD: NONE                                                 
REMARK   3    TARGET RESTRAINTS.                                                
REMARK   3     TARGET REPRESENTATION : NONE                                     
REMARK   3     TARGET STRUCTURE : NULL                                          
REMARK   3                                                                      
REMARK   3  TLS DETAILS.                                                        
REMARK   3   NUMBER OF TLS GROUPS  :            2                               
REMARK   3                                                                      
REMARK   3   TLS GROUP :            1                                           
REMARK   3    SET : { A|* }                                                     
REMARK   3    ORIGIN FOR THE GROUP (A):  -13.8139   -1.6546  -19.4354           
REMARK   3    T TENSOR                                                          
REMARK   3     T11:    0.0066 T22:   -0.0383                                    
REMARK   3     T33:   -0.0690 T12:    0.1790                                    
REMARK   3     T13:    0.0998 T23:    0.1032                                    
REMARK   3    L TENSOR                                                          
REMARK   3     L11:    2.5175 L22:    2.6039                                    
REMARK   3     L33:    2.5962 L12:   -1.5269                                    
REMARK   3     L13:    0.2824 L23:    0.4879                                    
REMARK   3    S TENSOR                                                          
REMARK   3     S11:    0.3963 S12:    0.2767 S13:    0.2594                     
REMARK   3     S21:   -0.3363 S22:   -0.3431 S23:   -0.2069                     
REMARK   3     S31:    0.0059 S32:    0.3161 S33:   -0.0532                     
REMARK   3                                                                      
REMARK   3   TLS GROUP :            2                                           
REMARK   3    SET : { B|* }                                                     
REMARK   3    ORIGIN FOR THE GROUP (A):  -18.4884    0.8657  -15.6487           
REMARK   3    T TENSOR                                                          
REMARK   3     T11:    0.0764 T22:    0.0139                                    
REMARK   3     T33:    0.0199 T12:    0.1687                                    
REMARK   3     T13:    0.0611 T23:    0.0469                                    
REMARK   3    L TENSOR                                                          
REMARK   3     L11:    1.1138 L22:    0.8180                                    
REMARK   3     L33:    1.3775 L12:   -0.4625                                    
REMARK   3     L13:    0.2821 L23:    0.0266                                    
REMARK   3    S TENSOR                                                          
REMARK   3     S11:    0.2947 S12:    0.1001 S13:    0.1114                     
REMARK   3     S21:   -0.1134 S22:   -0.2788 S23:    0.0391                     
REMARK   3     S31:    0.0601 S32:    0.1039 S33:   -0.0159                     
REMARK   3                                                                      
REMARK   3  REFINEMENT NOTES.                                                   
REMARK   3   NUMBER OF REFINEMENT NOTES :   1                                   
REMARK   3   NOTE   1 : IDEAL-DIST CONTACT TERM CONTACT SETUP. ALL ATOMS        
REMARK   3               HAVE CCP4 ATOM TYPE FROM LIBRARY                       
REMARK   3
REMARK   3  OTHER REFINEMENT REMARKS: NULL
REMARK   3
REMARK 290                                                            
REMARK 290 CRYSTALLOGRAPHIC SYMMETRY                                  
REMARK 290 SYMMETRY OPERATORS FOR SPACE GROUP: P 43 2 2               
REMARK 290                                                            
REMARK 290      SYMOP   SYMMETRY                                      
REMARK 290     NNNMMM   OPERATOR                                      
REMARK 290       1555   X,Y,Z                                         
REMARK 290       2555   -X,-Y,1/2+Z                                   
REMARK 290       3555   -Y,X,3/4+Z                                    
REMARK 290       4555   Y,-X,1/4+Z                                    
REMARK 290       5555   -X,Y,-Z                                       
REMARK 290       6555   X,-Y,1/2-Z                                    
REMARK 290       7555   Y,X,1/4-Z                                     
REMARK 290       8555   -Y,-X,3/4-Z                                   
REMARK 290                                                            
REMARK 290     WHERE NNN -> OPERATOR NUMBER                           
REMARK 290           MMM -> TRANSLATION VECTOR                        
REMARK 290                                                            
REMARK 290 CRYSTALLOGRAPHIC SYMMETRY TRANSFORMATIONS                  
REMARK 290 THE FOLLOWING TRANSFORMATIONS OPERATE ON THE ATOM/HETATM   
REMARK 290 RECORDS IN THIS ENTRY TO PRODUCE CRYSTALLOGRAPHICALLY      
REMARK 290 RELATED MOLECULES.                                         
REMARK 290   SMTRY1   1  1.000000  0.000000  0.000000        0.00000
REMARK 290   SMTRY2   1  0.000000  1.000000  0.000000        0.00000
REMARK 290   SMTRY3   1  0.000000  0.000000  1.000000        0.00000
REMARK 290   SMTRY1   2 -1.000000  0.000000  0.000000        0.00000
REMARK 290   SMTRY2   2  0.000000 -1.000000  0.000000        0.00000
REMARK 290   SMTRY3   2  0.000000  0.000000  1.000000      108.28450
REMARK 290   SMTRY1   3  0.000000 -1.000000  0.000000        0.00000
REMARK 290   SMTRY2   3  1.000000  0.000000  0.000000        0.00000
REMARK 290   SMTRY3   3  0.000000  0.000000  1.000000      162.42675
REMARK 290   SMTRY1   4  0.000000  1.000000  0.000000        0.00000
REMARK 290   SMTRY2   4 -1.000000  0.000000  0.000000        0.00000
REMARK 290   SMTRY3   4  0.000000  0.000000  1.000000       54.14225
REMARK 290   SMTRY1   5 -1.000000  0.000000  0.000000        0.00000
REMARK 290   SMTRY2   5  0.000000  1.000000  0.000000        0.00000
REMARK 290   SMTRY3   5  0.000000  0.000000 -1.000000        0.00000
REMARK 290   SMTRY1   6  1.000000  0.000000  0.000000        0.00000
REMARK 290   SMTRY2   6  0.000000 -1.000000  0.000000        0.00000
REMARK 290   SMTRY3   6  0.000000  0.000000 -1.000000      108.28450
REMARK 290   SMTRY1   7  0.000000  1.000000  0.000000        0.00000
REMARK 290   SMTRY2   7  1.000000  0.000000  0.000000        0.00000
REMARK 290   SMTRY3   7  0.000000  0.000000 -1.000000       54.14225
REMARK 290   SMTRY1   8  0.000000 -1.000000  0.000000        0.00000
REMARK 290   SMTRY2   8 -1.000000  0.000000  0.000000        0.00000
REMARK 290   SMTRY3   8  0.000000  0.000000 -1.000000      162.42675
REMARK 290                                                            
REMARK 290 REMARK: NULL                                               
CRYST1   42.599   42.599  216.569  90.00  90.00  90.00 P 43 2 2                 


$$$$
Zx0969a_ligand
  PyMOL3.0          3D                             0

 10 11  0  0  0  0  0  0  0  0999 V2000
   -8.4800    4.9990  -11.7660 C   0  0  0  0  0  0  0  0  0  0  0  0
   -8.9410    4.1330   -8.2420 N   0  0  0  0  0  0  0  0  0  0  0  0
   -8.6480    4.9000  -10.2680 C   0  0  0  0  0  0  0  0  0  0  0  0
   -8.8710    5.4870   -8.0940 N   0  0  0  0  0  0  0  0  0  0  0  0
   -8.8080    3.7600   -9.5320 C   0  0  0  0  0  0  0  0  0  0  0  0
   -8.7430    1.4190   -8.7280 N   0  0  0  0  0  0  0  0  0  0  0  0
   -8.6910    5.9440   -9.3250 C   0  0  0  0  0  0  0  0  0  0  0  0
   -8.8540    2.3060   -9.8920 C   0  0  0  0  0  0  0  0  0  0  0  0
   -9.6000    1.8720   -7.6120 C   0  0  0  0  0  0  0  0  0  0  0  0
   -9.1560    3.2320   -7.1030 C   0  0  0  0  0  0  0  0  0  0  0  0
  1  3  1  0  0  0  0
  2  4  4  0  0  0  0
  2 10  1  0  0  0  0
  3  5  4  0  0  0  0
  3  7  4  0  0  0  0
  4  7  4  0  0  0  0
  2  5  4  0  0  0  0
  5  8  1  0  0  0  0
  6  9  1  0  0  0  0
  6  8  1  0  0  0  0
  9 10  1  0  0  0  0
M  END
>  <pdb_header>
COMPND    XX01ZVNS2B-x0969_B_203_XX01ZVNS2B-x1291+B+301+1


$$$$
Zx0990a
  PyMOL3.0          3D                             0

 22 22  0  0  0  0  0  0  0  0999 V2000
   -8.5410    4.9750  -17.0650 N   0  0  0  0  0  0  0  0  0  0  0  0
   -8.9810    4.5520  -15.7400 C   0  0  0  0  0  0  0  0  0  0  0  0
   -7.1040    6.4480  -16.1650 O   0  0  0  0  0  0  0  0  0  0  0  0
   -9.4100    4.5380  -18.1590 C   0  0  0  0  0  0  0  0  0  0  0  0
   -6.7300    5.8110  -18.2840 N   0  0  0  0  0  0  0  0  0  0  0  0
   -7.4370    5.7740  -17.1230 C   0  0  0  0  0  0  0  0  0  0  0  0
   -4.7480    6.2620  -20.2790 N   0  0  0  0  0  0  0  0  0  0  0  0
   -6.0720    4.6800  -18.9540 C   0  0  0  0  0  0  0  0  0  0  0  0
   -4.6840    5.0500  -19.4470 C   0  0  0  0  0  0  0  0  0  0  0  0
   -5.2820    7.3950  -19.5120 C   0  0  0  0  0  0  0  0  0  0  0  0
   -6.6840    7.0770  -19.0300 C   0  0  0  0  0  0  0  0  0  0  0  0
   -7.8600    2.4850  -28.9980 N   0  0  0  0  0  0  0  0  0  0  0  0
   -8.9910    1.6200  -28.6880 C   0  0  0  0  0  0  0  0  0  0  0  0
   -6.0980    3.2470  -27.8240 O   0  0  0  0  0  0  0  0  0  0  0  0
   -8.1320    3.5370  -29.9710 C   0  0  0  0  0  0  0  0  0  0  0  0
   -6.0550    1.1250  -28.5840 N   0  0  0  0  0  0  0  0  0  0  0  0
   -6.6400    2.3370  -28.4260 C   0  0  0  0  0  0  0  0  0  0  0  0
   -5.6760   -1.4910  -28.8280 N   0  0  0  0  0  0  0  0  0  0  0  0
   -5.5000    0.7620  -29.8960 C   0  0  0  0  0  0  0  0  0  0  0  0
   -5.5290   -0.7450  -30.1030 C   0  0  0  0  0  0  0  0  0  0  0  0
   -4.8720   -0.8860  -27.7480 C   0  0  0  0  0  0  0  0  0  0  0  0
   -5.3330    0.5310  -27.4500 C   0  0  0  0  0  0  0  0  0  0  0  0
  1  2  1  0  0  0  0
  1  4  1  0  0  0  0
  3  6  2  0  0  0  0
  5  8  1  0  0  0  0
  5 11  1  0  0  0  0
  1  6  1  0  0  0  0
  5  6  1  0  0  0  0
  7  9  1  0  0  0  0
  8  9  1  0  0  0  0
  7 10  1  0  0  0  0
 10 11  1  0  0  0  0
 12 13  1  0  0  0  0
 12 15  1  0  0  0  0
 14 17  2  0  0  0  0
 16 19  1  0  0  0  0
 16 22  1  0  0  0  0
 12 17  1  0  0  0  0
 16 17  1  0  0  0  0
 18 20  1  0  0  0  0
 19 20  1  0  0  0  0
 18 21  1  0  0  0  0
 21 22  1  0  0  0  0
M  END
>  <pdb_header>
HEADER    ----                                    25-MAY-23                     
TITLE     ---                                                                   
EXPDTA    X-RAY DIFFRACTION                                                     
REMARK --------------------- added by autoBUSTER ---------------------------------START
REMARK run at   = Fri Sep 29 18:33:11 BST 2023
REMARK     in   = /dls/labxchem/data/lb32627/lb32627-65/processing/analysis/model_building/XX01ZVNS2B-x0990
REMARK     user = kyf22269
REMARK     cmd  = \
REMARK            /dls_sw/apps/GPhL/BUSTER/20230726/autoBUSTER/bin/linux64/refine \
REMARK            -p \
REMARK            /dls/labxchem/data/lb32627/lb32627-65/processing/analysis/model_building/XX01ZVNS2B-x0990/cootOut/Refi
REMARK            -m \
REMARK            /dls/labxchem/data/lb32627/lb32627-65/processing/analysis/model_building/XX01ZVNS2B-x0990/XX01ZVNS2B-x
REMARK            -l \
REMARK            /dls/labxchem/data/lb32627/lb32627-65/processing/analysis/model_building/XX01ZVNS2B-x0990/Z270760338.c
REMARK            -autoncs -M TLSbasic -d Refine_7
REMARK Files used:
REMARK   PDB              = Refine_7/pdbchk.pdb
REMARK   MTZ              = /dls/labxchem/data/lb32627/lb32627-65/processing/analysis/model_building/XX01ZVNS2B-x0990/XX
REMARK output written to subdirectory = Refine_7
REMARK best refinement for F,SIGF with R/Rfree 0.2279/0.2700
REMARK header records are copied from input PDB file (apart from REMARK 3!)
REMARK --------------------- added by autoBUSTER -----------------------------------END
REMARK --------------------- added by autoBUSTER -------------------------------
REMARK run at   = Wed Jun 14 18:50:05 BST 2023                                  
REMARK     in   = /dls/labxchem/data/lb32627/lb32627-65/processing/analysis/mode
REMARK     user = xau79897                                                      
REMARK     cmd  = \                                                             
REMARK            /dls_sw/apps/GPhL/BUSTER/20230614/autoBUSTER/bin/linux64/refin
REMARK            -p \                                                          
REMARK            /dls/labxchem/data/lb32627/lb32627-65/processing/analysis/mode
REMARK            -m \                                                          
REMARK            /dls/labxchem/data/lb32627/lb32627-65/processing/analysis/mode
REMARK            -l \                                                          
REMARK            /dls/labxchem/data/lb32627/lb32627-65/processing/analysis/mode
REMARK            -autoncs -M TLSbasic -B user -Gelly gelly.dat \               
REMARK            StopOnGellySanityCheckError=no -d Refine_6                    
REMARK Files used:                                                              
REMARK   PDB              = Refine_6/pdbchk.pdb                                 
REMARK   MTZ              = /dls/labxchem/data/lb32627/lb32627-65/processing/ana
REMARK   Gelly commands       = /dls/labxchem/data/lb32627/lb32627-65/processing
REMARK output written to subdirectory = Refine_6                                
REMARK best refinement for F,SIGF with R/Rfree 0.2291/0.2699                    
REMARK header records are copied from input PDB file (apart from REMARK 3!)     
REMARK --------------------- added by autoBUSTER -------------------------------
REMARK --------------------- added by autoBUSTER -------------------------------
REMARK run at   = Fri Jun  9 12:24:30 BST 2023                                  
REMARK     in   = /dls/labxchem/data/lb32627/lb32627-65/processing/analysis/mode
REMARK     user = xau79897                                                      
REMARK     cmd  = \                                                             
REMARK            /dls_sw/apps/GPhL/BUSTER/20230217/autoBUSTER/bin/linux64/refin
REMARK            -p \                                                          
REMARK            /dls/labxchem/data/lb32627/lb32627-65/processing/analysis/mode
REMARK            -m \                                                          
REMARK            /dls/labxchem/data/lb32627/lb32627-65/processing/analysis/mode
REMARK            -l \                                                          
REMARK            /dls/labxchem/data/lb32627/lb32627-65/processing/analysis/mode
REMARK            -autoncs -M TLSbasic -B user -Gelly gelly.dat \               
REMARK            StopOnGellySanityCheckError=no -d Refine_5                    
REMARK Files used:                                                              
REMARK   PDB              = Refine_5/pdbchk.pdb                                 
REMARK   MTZ              = /dls/labxchem/data/lb32627/lb32627-65/processing/ana
REMARK   Gelly commands       = /dls/labxchem/data/lb32627/lb32627-65/processing
REMARK output written to subdirectory = Refine_5                                
REMARK best refinement for F,SIGF with R/Rfree 0.2290/0.2694                    
REMARK header records are copied from input PDB file (apart from REMARK 3!)     
REMARK --------------------- added by autoBUSTER -------------------------------
REMARK --------------------- added by autoBUSTER -------------------------------
REMARK run at   = Sun May 28 20:51:25 BST 2023                                  
REMARK     in   = /dls/labxchem/data/lb32627/lb32627-65/processing/analysis/mode
REMARK     user = xau79897                                                      
REMARK     cmd  = \                                                             
REMARK            /dls_sw/apps/GPhL/BUSTER/20230217/autoBUSTER/bin/linux64/refin
REMARK            -p \                                                          
REMARK            /dls/labxchem/data/lb32627/lb32627-65/processing/analysis/mode
REMARK            -m \                                                          
REMARK            /dls/labxchem/data/lb32627/lb32627-65/processing/analysis/mode
REMARK            -l \                                                          
REMARK            /dls/labxchem/data/lb32627/lb32627-65/processing/analysis/mode
REMARK            -autoncs -M TLSbasic -B user -Gelly gelly.dat \               
REMARK            StopOnGellySanityCheckError=no -d Refine_4                    
REMARK Files used:                                                              
REMARK   PDB              = Refine_4/pdbchk.pdb                                 
REMARK   MTZ              = /dls/labxchem/data/lb32627/lb32627-65/processing/ana
REMARK   Gelly commands       = /dls/labxchem/data/lb32627/lb32627-65/processing
REMARK output written to subdirectory = Refine_4                                
REMARK best refinement for F,SIGF with R/Rfree 0.2301/0.2661                    
REMARK header records are copied from input PDB file (apart from REMARK 3!)     
REMARK --------------------- added by autoBUSTER -------------------------------
REMARK --------------------- added by autoBUSTER -------------------------------
REMARK run at   = Fri May 26 21:47:51 BST 2023                                  
REMARK     in   = /dls/labxchem/data/lb32627/lb32627-65/processing/analysis/mode
REMARK     user = xau79897                                                      
REMARK     cmd  = \                                                             
REMARK            /dls_sw/apps/GPhL/BUSTER/20230217/autoBUSTER/bin/linux64/refin
REMARK            -p \                                                          
REMARK            /dls/labxchem/data/lb32627/lb32627-65/processing/analysis/mode
REMARK            -m \                                                          
REMARK            /dls/labxchem/data/lb32627/lb32627-65/processing/analysis/mode
REMARK            -l \                                                          
REMARK            /dls/labxchem/data/lb32627/lb32627-65/processing/analysis/mode
REMARK            -autoncs -M TLSbasic -WAT -B user -Gelly gelly.dat \          
REMARK            StopOnGellySanityCheckError=no -d Refine_3                    
REMARK Files used:                                                              
REMARK   PDB              = Refine_3/pdbchk.pdb                                 
REMARK   MTZ              = /dls/labxchem/data/lb32627/lb32627-65/processing/ana
REMARK   Gelly commands       = /dls/labxchem/data/lb32627/lb32627-65/processing
REMARK output written to subdirectory = Refine_3                                
REMARK best refinement for F,SIGF with R/Rfree 0.2281/0.2652                    
REMARK header records are copied from input PDB file (apart from REMARK 3!)     
REMARK --------------------- added by autoBUSTER -------------------------------
REMARK --------------------- added by autoBUSTER -------------------------------
REMARK run at   = Fri May 26 13:37:19 BST 2023                                  
REMARK     in   = /dls/labxchem/data/lb32627/lb32627-65/processing/analysis/mode
REMARK     user = xau79897                                                      
REMARK     cmd  = \                                                             
REMARK            /dls_sw/apps/GPhL/BUSTER/20230217/autoBUSTER/bin/linux64/refin
REMARK            -p \                                                          
REMARK            /dls/labxchem/data/lb32627/lb32627-65/processing/analysis/mode
REMARK            -m \                                                          
REMARK            /dls/labxchem/data/lb32627/lb32627-65/processing/analysis/mode
REMARK            -l \                                                          
REMARK            /dls/labxchem/data/lb32627/lb32627-65/processing/analysis/mode
REMARK            -autoncs -M TLSbasic -WAT -B user -Gelly gelly.dat \          
REMARK            StopOnGellySanityCheckError=no -d Refine_2                    
REMARK Files used:                                                              
REMARK   PDB              = Refine_2/pdbchk.pdb                                 
REMARK   MTZ              = /dls/labxchem/data/lb32627/lb32627-65/processing/ana
REMARK   Gelly commands       = /dls/labxchem/data/lb32627/lb32627-65/processing
REMARK output written to subdirectory = Refine_2                                
REMARK best refinement for F,SIGF with R/Rfree 0.2278/0.2621                    
REMARK header records are copied from input PDB file (apart from REMARK 3!)     
REMARK --------------------- added by autoBUSTER -------------------------------
REMARK   2                                                            
REMARK   2 RESOLUTION.    1.53 ANGSTROMS.
REMARK   3
REMARK   3 REFINEMENT.
REMARK   3   PROGRAM     : BUSTER 2.10.4 (26-JUL-2023)
REMARK   3   AUTHORS     : BRICOGNE,BLANC,BRANDL,FLENSBURG,KELLER,
REMARK   3               : PACIOREK,ROVERSI,SHARFF,SMART,VONRHEIN,WOMACK;
REMARK   3               : MATTHEWS,TEN EYCK,TRONRUD
REMARK   3
REMARK   3  DATA USED IN REFINEMENT.
REMARK   3   RESOLUTION RANGE HIGH (ANGSTROMS) : 1.526
REMARK   3   RESOLUTION RANGE LOW  (ANGSTROMS) : 23.05
REMARK   3   DATA CUTOFF            (SIGMA(F)) : 0.000
REMARK   3   COMPLETENESS FOR RANGE        (%) : 79.2
REMARK   3   NUMBER OF REFLECTIONS             : 24829
REMARK   3
REMARK   3  FIT TO DATA USED IN REFINEMENT.
REMARK   3   CROSS-VALIDATION METHOD          : THROUGHOUT
REMARK   3   FREE R VALUE TEST SET SELECTION  : RANDOM
REMARK   3   R VALUE     (WORKING + TEST SET) : 0.2301
REMARK   3   R VALUE            (WORKING SET) : 0.2279
REMARK   3   FREE R VALUE                     : 0.2700
REMARK   3   FREE R VALUE TEST SET SIZE   (%) : 5.130
REMARK   3   FREE R VALUE TEST SET COUNT      : 1273
REMARK   3   ESTIMATED ERROR OF FREE R VALUE  : NULL
REMARK   3
REMARK   3  FIT IN THE HIGHEST RESOLUTION BIN.
REMARK   3   TOTAL NUMBER OF BINS USED           : 51
REMARK   3   BIN RESOLUTION RANGE HIGH       (A) : 1.53
REMARK   3   BIN RESOLUTION RANGE LOW        (A) : 1.66
REMARK   3   BIN COMPLETENESS (WORKING+TEST) (%) : 7.43
REMARK   3   REFLECTIONS IN BIN   (WORKING+TEST) : 497
REMARK   3   BIN R VALUE          (WORKING+TEST) : 0.5777
REMARK   3   REFLECTIONS IN BIN    (WORKING SET) : 473
REMARK   3   BIN R VALUE           (WORKING SET) : 0.5753
REMARK   3   BIN FREE R VALUE                    : 0.6274
REMARK   3   BIN FREE R VALUE TEST SET SIZE  (%) : 4.83
REMARK   3   BIN FREE R VALUE TEST SET COUNT     : 24
REMARK   3   ESTIMATED ERROR OF BIN FREE R VALUE : NULL
REMARK   3
REMARK   3  NUMBER OF NON-HYDROGEN ATOMS USED IN REFINEMENT.
REMARK   3   PROTEIN ATOMS            : 1476
REMARK   3   NUCLEIC ACID ATOMS       : 0
REMARK   3   HETEROGEN ATOMS          : 26
REMARK   3   SOLVENT ATOMS            : 127
REMARK   3
REMARK   3  B VALUES.
REMARK   3   FROM WILSON PLOT           (A**2) : 32.97
REMARK   3   MEAN B VALUE      (OVERALL, A**2) : 51.05
REMARK   3   OVERALL ANISOTROPIC B VALUE.
REMARK   3    B11 (A**2) : -6.77060
REMARK   3    B22 (A**2) : -6.77060
REMARK   3    B33 (A**2) : 13.54120
REMARK   3    B12 (A**2) : 0.00000
REMARK   3    B13 (A**2) : 0.00000
REMARK   3    B23 (A**2) : 0.00000
REMARK   3
REMARK   3  ESTIMATED COORDINATE ERROR.
REMARK   3   ESD FROM LUZZATI PLOT                    (A) : 0.33
REMARK   3   DPI (BLOW EQ-10) BASED ON R VALUE        (A) : 0.126
REMARK   3   DPI (BLOW EQ-9) BASED ON FREE R VALUE    (A) : 0.123
REMARK   3   DPI (CRUICKSHANK) BASED ON R VALUE       (A) : 0.118
REMARK   3   DPI (CRUICKSHANK) BASED ON FREE R VALUE  (A) : 0.118
REMARK   3
REMARK   3   REFERENCES: BLOW, D. (2002) ACTA CRYST D58, 792-797
REMARK   3               CRUICKSHANK, D.W.J. (1999) ACTA CRYST D55, 583-601
REMARK   3
REMARK   3  CORRELATION COEFFICIENTS.
REMARK   3   CORRELATION COEFFICIENT FO-FC      : 0.943
REMARK   3   CORRELATION COEFFICIENT FO-FC FREE : 0.929
REMARK   3
REMARK   3  X-RAY WEIGHT : 6.40
REMARK   3
REMARK   3  GEOMETRY FUNCTION.                                                  
REMARK   3   RESTRAINT LIBRARIES.                                               
REMARK   3    NUMBER OF LIBRARIES USED :   9                                    
REMARK   3    LIBRARY  1 : protgeo_eh99.dat (V1.6.4.20) 20220523  STANDARD      
REMARK   3                 AMINO ACID DICTIONARY. BONDS AND ANGLES FROM         
REMARK   3                 ENGH AND HUBER EH99. OTHER VALUES BASED ON           
REMARK   3                 PREVIOUS TNT OR TAKEN FROM CCP4. INCLUDES            
REMARK   3                 HYDROGEN ATOMS.                                      
REMARK   3    LIBRARY  2 : exoticaa.dat (V1.3.4.16) 20220523  COLLECTION        
REMARK   3                 OF NON-STANDARD AMINO ACIDS, MAINLY EH91             
REMARK   3                 WITHOUT IDEAL DISTANCE INFO                          
REMARK   3    LIBRARY  3 : nuclgeo.dat (V1.13.4.9) 20221011                     
REMARK   3    LIBRARY  4 : bcorrel.dat (V1.15.10.2) 20190616                    
REMARK   3    LIBRARY  5 : contact.dat (V1.15.12.10) 20191121                   
REMARK   3    LIBRARY  6 : idealdist_contact.dat (V1.3.4.14) 20230724           
REMARK   3                 IDEAL-DISTANCE CONTACT TERM DATA AS USED IN          
REMARK   3                 PROLSQ. VALUES USED HERE ARE BASEd ON DATA           
REMARK   3                 HARVESTING OF PDB AS OF 20190109                     
REMARK   3    LIBRARY  7 : restraints for LIG (unknown) from cif                
REMARK   3                 dictionary Z270760338.cif; generated by GRADE        
REMARK   3                 1.2.21 (Feb 03 2022) from SMILES                     
REMARK   3                 CN(C)C(=O)N1CCNCC1 using MOGUL 1.8.5(274361),        
REMARK   3                 CSD as541be, with quantum mechanics RM1              
REMARK   3    LIBRARY  8 : restraints for DMS (DIMETHYL SULFOXIDE) from         
REMARK   3                 cif dictionary DMS.cif; generated by grade2          
REMARK   3                 version 1.1.0a7 from                                 
REMARK   3                 PDB_chemical_components_definition_file              
REMARK   3                 ftp://ftp.ebi.ac.uk/pub/databases/msd/pdbechem_v     
REMARK   3                 2/D/DMS/DMS.cif using RDKit 2021.03.4                
REMARK   3                 ((DatabaseID PDB-DMS))                               
REMARK   3    LIBRARY  9 : assume.dat (V1.9.4.3) 20221011                       
REMARK   3                                                                      
REMARK   3   NUMBER OF GEOMETRIC FUNCTION TERMS DEFINED : 15                    
REMARK   3   TERM                          COUNT    WEIGHT   FUNCTION.          
REMARK   3    BOND LENGTHS              :   1673 ;   2.00 ;  HARMONIC           
REMARK   3    BOND ANGLES               :   2297 ;   2.00 ;  HARMONIC           
REMARK   3    TORSION ANGLES            :    578 ;   2.00 ;  SINUSOIDAL         
REMARK   3    TRIGONAL CARBON PLANES    :   NULL ;   NULL ;  NULL               
REMARK   3    GENERAL PLANES            :    294 ;   5.00 ;  HARMONIC           
REMARK   3    ISOTROPIC THERMAL FACTORS :   1673 ;  10.00 ;  HARMONIC           
REMARK   3    BAD NON-BONDED CONTACTS   :   NULL ;   NULL ;  NULL               
REMARK   3    IMPROPER TORSIONS         :   NULL ;   NULL ;  NULL               
REMARK   3    PSEUDOROTATION ANGLES     :   NULL ;   NULL ;  NULL               
REMARK   3    CHIRAL IMPROPER TORSION   :    210 ;   5.00 ;  SEMIHARMONIC       
REMARK   3    SUM OF OCCUPANCIES        :   NULL ;   NULL ;  NULL               
REMARK   3    UTILITY DISTANCES         :   NULL ;   NULL ;  NULL               
REMARK   3    UTILITY ANGLES            :   NULL ;   NULL ;  NULL               
REMARK   3    UTILITY TORSION           :   NULL ;   NULL ;  NULL               
REMARK   3    IDEAL-DIST CONTACT TERM   :   1374 ;   4.00 ;  SEMIHARMONIC       
REMARK   3                                                                      
REMARK   3   RMS DEVIATIONS FROM IDEAL VALUES.                                  
REMARK   3   BOND LENGTHS                       (A) : 0.010                     
REMARK   3   BOND ANGLES                  (DEGREES) : 1.04                      
REMARK   3   PEPTIDE OMEGA TORSION ANGLES (DEGREES) : 3.55                      
REMARK   3   OTHER TORSION ANGLES         (DEGREES) : 16.23                     
REMARK   3                                                                      
REMARK   3   SIMILARITY.                                                        
REMARK   3    NCS.                                                              
REMARK   3     NCS METHOD: NONE                                                 
REMARK   3    TARGET RESTRAINTS.                                                
REMARK   3     TARGET REPRESENTATION : NONE                                     
REMARK   3     TARGET STRUCTURE : NULL                                          
REMARK   3                                                                      
REMARK   3  TLS DETAILS.                                                        
REMARK   3   NUMBER OF TLS GROUPS  :            2                               
REMARK   3                                                                      
REMARK   3   TLS GROUP :            1                                           
REMARK   3    SET : { A|* }                                                     
REMARK   3    ORIGIN FOR THE GROUP (A):  -14.0444   -2.0758  -19.7300           
REMARK   3    T TENSOR                                                          
REMARK   3     T11:   -0.0116 T22:   -0.1059                                    
REMARK   3     T33:   -0.1053 T12:    0.1334                                    
REMARK   3     T13:    0.1077 T23:    0.0772                                    
REMARK   3    L TENSOR                                                          
REMARK   3     L11:    2.4787 L22:    2.8727                                    
REMARK   3     L33:    3.2321 L12:   -1.1883                                    
REMARK   3     L13:   -0.1122 L23:    0.4409                                    
REMARK   3    S TENSOR                                                          
REMARK   3     S11:    0.3736 S12:    0.2608 S13:    0.2178                     
REMARK   3     S21:   -0.4448 S22:   -0.2496 S23:   -0.1601                     
REMARK   3     S31:   -0.0502 S32:    0.3534 S33:   -0.1241                     
REMARK   3                                                                      
REMARK   3   TLS GROUP :            2                                           
REMARK   3    SET : { B|* }                                                     
REMARK   3    ORIGIN FOR THE GROUP (A):  -17.9647    0.5568  -15.6850           
REMARK   3    T TENSOR                                                          
REMARK   3     T11:    0.0727 T22:   -0.0340                                    
REMARK   3     T33:    0.0342 T12:    0.1434                                    
REMARK   3     T13:    0.0735 T23:    0.0429                                    
REMARK   3    L TENSOR                                                          
REMARK   3     L11:    1.0283 L22:    0.9457                                    
REMARK   3     L33:    1.6546 L12:   -0.4466                                    
REMARK   3     L13:    0.2400 L23:   -0.1141                                    
REMARK   3    S TENSOR                                                          
REMARK   3     S11:    0.2619 S12:    0.1027 S13:    0.1442                     
REMARK   3     S21:   -0.1164 S22:   -0.2062 S23:    0.0561                     
REMARK   3     S31:    0.0441 S32:    0.1553 S33:   -0.0556                     
REMARK   3                                                                      
REMARK   3  REFINEMENT NOTES.                                                   
REMARK   3   NUMBER OF REFINEMENT NOTES :   1                                   
REMARK   3   NOTE   1 : IDEAL-DIST CONTACT TERM CONTACT SETUP. ALL ATOMS        
REMARK   3               HAVE CCP4 ATOM TYPE FROM LIBRARY                       
REMARK   3
REMARK   3  OTHER REFINEMENT REMARKS: NULL
REMARK   3
REMARK 290                                                            
REMARK 290 CRYSTALLOGRAPHIC SYMMETRY                                  
REMARK 290 SYMMETRY OPERATORS FOR SPACE GROUP: P 43 2 2               
REMARK 290                                                            
REMARK 290      SYMOP   SYMMETRY                                      
REMARK 290     NNNMMM   OPERATOR                                      
REMARK 290       1555   X,Y,Z                                         
REMARK 290       2555   -X,-Y,1/2+Z                                   
REMARK 290       3555   -Y,X,3/4+Z                                    
REMARK 290       4555   Y,-X,1/4+Z                                    
REMARK 290       5555   -X,Y,-Z                                       
REMARK 290       6555   X,-Y,1/2-Z                                    
REMARK 290       7555   Y,X,1/4-Z                                     
REMARK 290       8555   -Y,-X,3/4-Z                                   
REMARK 290                                                            
REMARK 290     WHERE NNN -> OPERATOR NUMBER                           
REMARK 290           MMM -> TRANSLATION VECTOR                        
REMARK 290                                                            
REMARK 290 CRYSTALLOGRAPHIC SYMMETRY TRANSFORMATIONS                  
REMARK 290 THE FOLLOWING TRANSFORMATIONS OPERATE ON THE ATOM/HETATM   
REMARK 290 RECORDS IN THIS ENTRY TO PRODUCE CRYSTALLOGRAPHICALLY      
REMARK 290 RELATED MOLECULES.                                         
REMARK 290   SMTRY1   1  1.000000  0.000000  0.000000        0.00000
REMARK 290   SMTRY2   1  0.000000  1.000000  0.000000        0.00000
REMARK 290   SMTRY3   1  0.000000  0.000000  1.000000        0.00000
REMARK 290   SMTRY1   2 -1.000000  0.000000  0.000000        0.00000
REMARK 290   SMTRY2   2  0.000000 -1.000000  0.000000        0.00000
REMARK 290   SMTRY3   2  0.000000  0.000000  1.000000      108.18900
REMARK 290   SMTRY1   3  0.000000 -1.000000  0.000000        0.00000
REMARK 290   SMTRY2   3  1.000000  0.000000  0.000000        0.00000
REMARK 290   SMTRY3   3  0.000000  0.000000  1.000000      162.28350
REMARK 290   SMTRY1   4  0.000000  1.000000  0.000000        0.00000
REMARK 290   SMTRY2   4 -1.000000  0.000000  0.000000        0.00000
REMARK 290   SMTRY3   4  0.000000  0.000000  1.000000       54.09450
REMARK 290   SMTRY1   5 -1.000000  0.000000  0.000000        0.00000
REMARK 290   SMTRY2   5  0.000000  1.000000  0.000000        0.00000
REMARK 290   SMTRY3   5  0.000000  0.000000 -1.000000        0.00000
REMARK 290   SMTRY1   6  1.000000  0.000000  0.000000        0.00000
REMARK 290   SMTRY2   6  0.000000 -1.000000  0.000000        0.00000
REMARK 290   SMTRY3   6  0.000000  0.000000 -1.000000      108.18900
REMARK 290   SMTRY1   7  0.000000  1.000000  0.000000        0.00000
REMARK 290   SMTRY2   7  1.000000  0.000000  0.000000        0.00000
REMARK 290   SMTRY3   7  0.000000  0.000000 -1.000000       54.09450
REMARK 290   SMTRY1   8  0.000000 -1.000000  0.000000        0.00000
REMARK 290   SMTRY2   8 -1.000000  0.000000  0.000000        0.00000
REMARK 290   SMTRY3   8  0.000000  0.000000 -1.000000      162.28350
REMARK 290                                                            
REMARK 290 REMARK: NULL                                               
CRYST1   42.380   42.380  216.378  90.00  90.00  90.00 P 43 2 2                 


$$$$
Zx0990a_ligand
  PyMOL3.0          3D                             0

 11 11  0  0  0  0  0  0  0  0999 V2000
   -7.4370    5.7740  -17.1230 C   0  0  0  0  0  0  0  0  0  0  0  0
   -8.5410    4.9750  -17.0650 N   0  0  0  0  0  0  0  0  0  0  0  0
   -7.1040    6.4480  -16.1650 O   0  0  0  0  0  0  0  0  0  0  0  0
   -9.4100    4.5380  -18.1590 C   0  0  0  0  0  0  0  0  0  0  0  0
   -6.7300    5.8110  -18.2840 N   0  0  0  0  0  0  0  0  0  0  0  0
   -8.9810    4.5520  -15.7400 C   0  0  0  0  0  0  0  0  0  0  0  0
   -4.7480    6.2620  -20.2790 N   0  0  0  0  0  0  0  0  0  0  0  0
   -6.6840    7.0770  -19.0300 C   0  0  0  0  0  0  0  0  0  0  0  0
   -5.2820    7.3950  -19.5120 C   0  0  0  0  0  0  0  0  0  0  0  0
   -4.6840    5.0500  -19.4470 C   0  0  0  0  0  0  0  0  0  0  0  0
   -6.0720    4.6800  -18.9540 C   0  0  0  0  0  0  0  0  0  0  0  0
  1  2  1  0  0  0  0
  1  5  1  0  0  0  0
  2  4  1  0  0  0  0
  2  6  1  0  0  0  0
  1  3  2  0  0  0  0
  5  8  1  0  0  0  0
  5 11  1  0  0  0  0
  7 10  1  0  0  0  0
  8  9  1  0  0  0  0
  7  9  1  0  0  0  0
 10 11  1  0  0  0  0
M  END
>  <pdb_header>
COMPND    XX01ZVNS2B-x0990_B_301_XX01ZVNS2B-x1291+B+301+1


$$$$
Zx0990b
  PyMOL3.0          3D                             0

 22 22  0  0  0  0  0  0  0  0999 V2000
   -8.8170    5.7040  -17.4070 N   0  0  0  0  0  0  0  0  0  0  0  0
   -9.2390    5.3260  -16.0640 C   0  0  0  0  0  0  0  0  0  0  0  0
   -7.3820    7.2190  -16.5770 O   0  0  0  0  0  0  0  0  0  0  0  0
   -9.6930    5.2200  -18.4760 C   0  0  0  0  0  0  0  0  0  0  0  0
   -7.0250    6.5080  -18.6760 N   0  0  0  0  0  0  0  0  0  0  0  0
   -7.7190    6.5090  -17.5060 C   0  0  0  0  0  0  0  0  0  0  0  0
   -5.0670    6.9010  -20.7070 N   0  0  0  0  0  0  0  0  0  0  0  0
   -6.3650    5.3580  -19.3110 C   0  0  0  0  0  0  0  0  0  0  0  0
   -4.9850    5.7200  -19.8310 C   0  0  0  0  0  0  0  0  0  0  0  0
   -5.6020    8.0570  -19.9760 C   0  0  0  0  0  0  0  0  0  0  0  0
   -6.9960    7.7460  -19.4670 C   0  0  0  0  0  0  0  0  0  0  0  0
   -8.2390    2.7850  -29.2480 N   0  0  0  0  0  0  0  0  0  0  0  0
   -9.3600    1.9220  -28.8950 C   0  0  0  0  0  0  0  0  0  0  0  0
   -6.4710    3.6020  -28.1210 O   0  0  0  0  0  0  0  0  0  0  0  0
   -8.5290    3.7980  -30.2560 C   0  0  0  0  0  0  0  0  0  0  0  0
   -6.4190    1.4530  -28.8040 N   0  0  0  0  0  0  0  0  0  0  0  0
   -7.0120    2.6670  -28.6840 C   0  0  0  0  0  0  0  0  0  0  0  0
   -6.0230   -1.1670  -28.9570 N   0  0  0  0  0  0  0  0  0  0  0  0
   -5.8750    1.0470  -30.1080 C   0  0  0  0  0  0  0  0  0  0  0  0
   -5.8950   -0.4670  -30.2600 C   0  0  0  0  0  0  0  0  0  0  0  0
   -5.2130   -0.5170  -27.9080 C   0  0  0  0  0  0  0  0  0  0  0  0
   -5.6810    0.9060  -27.6570 C   0  0  0  0  0  0  0  0  0  0  0  0
  1  2  1  0  0  0  0
  1  4  1  0  0  0  0
  3  6  2  0  0  0  0
  5  8  1  0  0  0  0
  5 11  1  0  0  0  0
  1  6  1  0  0  0  0
  5  6  1  0  0  0  0
  7  9  1  0  0  0  0
  8  9  1  0  0  0  0
  7 10  1  0  0  0  0
 10 11  1  0  0  0  0
 12 13  1  0  0  0  0
 12 15  1  0  0  0  0
 14 17  2  0  0  0  0
 16 19  1  0  0  0  0
 16 22  1  0  0  0  0
 12 17  1  0  0  0  0
 16 17  1  0  0  0  0
 18 20  1  0  0  0  0
 19 20  1  0  0  0  0
 18 21  1  0  0  0  0
 21 22  1  0  0  0  0
M  END
>  <pdb_header>
HEADER    ----                                    25-MAY-23                     
TITLE     ---                                                                   
EXPDTA    X-RAY DIFFRACTION                                                     
REMARK --------------------- added by autoBUSTER ---------------------------------START
REMARK run at   = Fri Sep 29 18:33:11 BST 2023
REMARK     in   = /dls/labxchem/data/lb32627/lb32627-65/processing/analysis/model_building/XX01ZVNS2B-x0990
REMARK     user = kyf22269
REMARK     cmd  = \
REMARK            /dls_sw/apps/GPhL/BUSTER/20230726/autoBUSTER/bin/linux64/refine \
REMARK            -p \
REMARK            /dls/labxchem/data/lb32627/lb32627-65/processing/analysis/model_building/XX01ZVNS2B-x0990/cootOut/Refi
REMARK            -m \
REMARK            /dls/labxchem/data/lb32627/lb32627-65/processing/analysis/model_building/XX01ZVNS2B-x0990/XX01ZVNS2B-x
REMARK            -l \
REMARK            /dls/labxchem/data/lb32627/lb32627-65/processing/analysis/model_building/XX01ZVNS2B-x0990/Z270760338.c
REMARK            -autoncs -M TLSbasic -d Refine_7
REMARK Files used:
REMARK   PDB              = Refine_7/pdbchk.pdb
REMARK   MTZ              = /dls/labxchem/data/lb32627/lb32627-65/processing/analysis/model_building/XX01ZVNS2B-x0990/XX
REMARK output written to subdirectory = Refine_7
REMARK best refinement for F,SIGF with R/Rfree 0.2279/0.2700
REMARK header records are copied from input PDB file (apart from REMARK 3!)
REMARK --------------------- added by autoBUSTER -----------------------------------END
REMARK --------------------- added by autoBUSTER -------------------------------
REMARK run at   = Wed Jun 14 18:50:05 BST 2023                                  
REMARK     in   = /dls/labxchem/data/lb32627/lb32627-65/processing/analysis/mode
REMARK     user = xau79897                                                      
REMARK     cmd  = \                                                             
REMARK            /dls_sw/apps/GPhL/BUSTER/20230614/autoBUSTER/bin/linux64/refin
REMARK            -p \                                                          
REMARK            /dls/labxchem/data/lb32627/lb32627-65/processing/analysis/mode
REMARK            -m \                                                          
REMARK            /dls/labxchem/data/lb32627/lb32627-65/processing/analysis/mode
REMARK            -l \                                                          
REMARK            /dls/labxchem/data/lb32627/lb32627-65/processing/analysis/mode
REMARK            -autoncs -M TLSbasic -B user -Gelly gelly.dat \               
REMARK            StopOnGellySanityCheckError=no -d Refine_6                    
REMARK Files used:                                                              
REMARK   PDB              = Refine_6/pdbchk.pdb                                 
REMARK   MTZ              = /dls/labxchem/data/lb32627/lb32627-65/processing/ana
REMARK   Gelly commands       = /dls/labxchem/data/lb32627/lb32627-65/processing
REMARK output written to subdirectory = Refine_6                                
REMARK best refinement for F,SIGF with R/Rfree 0.2291/0.2699                    
REMARK header records are copied from input PDB file (apart from REMARK 3!)     
REMARK --------------------- added by autoBUSTER -------------------------------
REMARK --------------------- added by autoBUSTER -------------------------------
REMARK run at   = Fri Jun  9 12:24:30 BST 2023                                  
REMARK     in   = /dls/labxchem/data/lb32627/lb32627-65/processing/analysis/mode
REMARK     user = xau79897                                                      
REMARK     cmd  = \                                                             
REMARK            /dls_sw/apps/GPhL/BUSTER/20230217/autoBUSTER/bin/linux64/refin
REMARK            -p \                                                          
REMARK            /dls/labxchem/data/lb32627/lb32627-65/processing/analysis/mode
REMARK            -m \                                                          
REMARK            /dls/labxchem/data/lb32627/lb32627-65/processing/analysis/mode
REMARK            -l \                                                          
REMARK            /dls/labxchem/data/lb32627/lb32627-65/processing/analysis/mode
REMARK            -autoncs -M TLSbasic -B user -Gelly gelly.dat \               
REMARK            StopOnGellySanityCheckError=no -d Refine_5                    
REMARK Files used:                                                              
REMARK   PDB              = Refine_5/pdbchk.pdb                                 
REMARK   MTZ              = /dls/labxchem/data/lb32627/lb32627-65/processing/ana
REMARK   Gelly commands       = /dls/labxchem/data/lb32627/lb32627-65/processing
REMARK output written to subdirectory = Refine_5                                
REMARK best refinement for F,SIGF with R/Rfree 0.2290/0.2694                    
REMARK header records are copied from input PDB file (apart from REMARK 3!)     
REMARK --------------------- added by autoBUSTER -------------------------------
REMARK --------------------- added by autoBUSTER -------------------------------
REMARK run at   = Sun May 28 20:51:25 BST 2023                                  
REMARK     in   = /dls/labxchem/data/lb32627/lb32627-65/processing/analysis/mode
REMARK     user = xau79897                                                      
REMARK     cmd  = \                                                             
REMARK            /dls_sw/apps/GPhL/BUSTER/20230217/autoBUSTER/bin/linux64/refin
REMARK            -p \                                                          
REMARK            /dls/labxchem/data/lb32627/lb32627-65/processing/analysis/mode
REMARK            -m \                                                          
REMARK            /dls/labxchem/data/lb32627/lb32627-65/processing/analysis/mode
REMARK            -l \                                                          
REMARK            /dls/labxchem/data/lb32627/lb32627-65/processing/analysis/mode
REMARK            -autoncs -M TLSbasic -B user -Gelly gelly.dat \               
REMARK            StopOnGellySanityCheckError=no -d Refine_4                    
REMARK Files used:                                                              
REMARK   PDB              = Refine_4/pdbchk.pdb                                 
REMARK   MTZ              = /dls/labxchem/data/lb32627/lb32627-65/processing/ana
REMARK   Gelly commands       = /dls/labxchem/data/lb32627/lb32627-65/processing
REMARK output written to subdirectory = Refine_4                                
REMARK best refinement for F,SIGF with R/Rfree 0.2301/0.2661                    
REMARK header records are copied from input PDB file (apart from REMARK 3!)     
REMARK --------------------- added by autoBUSTER -------------------------------
REMARK --------------------- added by autoBUSTER -------------------------------
REMARK run at   = Fri May 26 21:47:51 BST 2023                                  
REMARK     in   = /dls/labxchem/data/lb32627/lb32627-65/processing/analysis/mode
REMARK     user = xau79897                                                      
REMARK     cmd  = \                                                             
REMARK            /dls_sw/apps/GPhL/BUSTER/20230217/autoBUSTER/bin/linux64/refin
REMARK            -p \                                                          
REMARK            /dls/labxchem/data/lb32627/lb32627-65/processing/analysis/mode
REMARK            -m \                                                          
REMARK            /dls/labxchem/data/lb32627/lb32627-65/processing/analysis/mode
REMARK            -l \                                                          
REMARK            /dls/labxchem/data/lb32627/lb32627-65/processing/analysis/mode
REMARK            -autoncs -M TLSbasic -WAT -B user -Gelly gelly.dat \          
REMARK            StopOnGellySanityCheckError=no -d Refine_3                    
REMARK Files used:                                                              
REMARK   PDB              = Refine_3/pdbchk.pdb                                 
REMARK   MTZ              = /dls/labxchem/data/lb32627/lb32627-65/processing/ana
REMARK   Gelly commands       = /dls/labxchem/data/lb32627/lb32627-65/processing
REMARK output written to subdirectory = Refine_3                                
REMARK best refinement for F,SIGF with R/Rfree 0.2281/0.2652                    
REMARK header records are copied from input PDB file (apart from REMARK 3!)     
REMARK --------------------- added by autoBUSTER -------------------------------
REMARK --------------------- added by autoBUSTER -------------------------------
REMARK run at   = Fri May 26 13:37:19 BST 2023                                  
REMARK     in   = /dls/labxchem/data/lb32627/lb32627-65/processing/analysis/mode
REMARK     user = xau79897                                                      
REMARK     cmd  = \                                                             
REMARK            /dls_sw/apps/GPhL/BUSTER/20230217/autoBUSTER/bin/linux64/refin
REMARK            -p \                                                          
REMARK            /dls/labxchem/data/lb32627/lb32627-65/processing/analysis/mode
REMARK            -m \                                                          
REMARK            /dls/labxchem/data/lb32627/lb32627-65/processing/analysis/mode
REMARK            -l \                                                          
REMARK            /dls/labxchem/data/lb32627/lb32627-65/processing/analysis/mode
REMARK            -autoncs -M TLSbasic -WAT -B user -Gelly gelly.dat \          
REMARK            StopOnGellySanityCheckError=no -d Refine_2                    
REMARK Files used:                                                              
REMARK   PDB              = Refine_2/pdbchk.pdb                                 
REMARK   MTZ              = /dls/labxchem/data/lb32627/lb32627-65/processing/ana
REMARK   Gelly commands       = /dls/labxchem/data/lb32627/lb32627-65/processing
REMARK output written to subdirectory = Refine_2                                
REMARK best refinement for F,SIGF with R/Rfree 0.2278/0.2621                    
REMARK header records are copied from input PDB file (apart from REMARK 3!)     
REMARK --------------------- added by autoBUSTER -------------------------------
REMARK   2                                                            
REMARK   2 RESOLUTION.    1.53 ANGSTROMS.
REMARK   3
REMARK   3 REFINEMENT.
REMARK   3   PROGRAM     : BUSTER 2.10.4 (26-JUL-2023)
REMARK   3   AUTHORS     : BRICOGNE,BLANC,BRANDL,FLENSBURG,KELLER,
REMARK   3               : PACIOREK,ROVERSI,SHARFF,SMART,VONRHEIN,WOMACK;
REMARK   3               : MATTHEWS,TEN EYCK,TRONRUD
REMARK   3
REMARK   3  DATA USED IN REFINEMENT.
REMARK   3   RESOLUTION RANGE HIGH (ANGSTROMS) : 1.526
REMARK   3   RESOLUTION RANGE LOW  (ANGSTROMS) : 23.05
REMARK   3   DATA CUTOFF            (SIGMA(F)) : 0.000
REMARK   3   COMPLETENESS FOR RANGE        (%) : 79.2
REMARK   3   NUMBER OF REFLECTIONS             : 24829
REMARK   3
REMARK   3  FIT TO DATA USED IN REFINEMENT.
REMARK   3   CROSS-VALIDATION METHOD          : THROUGHOUT
REMARK   3   FREE R VALUE TEST SET SELECTION  : RANDOM
REMARK   3   R VALUE     (WORKING + TEST SET) : 0.2301
REMARK   3   R VALUE            (WORKING SET) : 0.2279
REMARK   3   FREE R VALUE                     : 0.2700
REMARK   3   FREE R VALUE TEST SET SIZE   (%) : 5.130
REMARK   3   FREE R VALUE TEST SET COUNT      : 1273
REMARK   3   ESTIMATED ERROR OF FREE R VALUE  : NULL
REMARK   3
REMARK   3  FIT IN THE HIGHEST RESOLUTION BIN.
REMARK   3   TOTAL NUMBER OF BINS USED           : 51
REMARK   3   BIN RESOLUTION RANGE HIGH       (A) : 1.53
REMARK   3   BIN RESOLUTION RANGE LOW        (A) : 1.66
REMARK   3   BIN COMPLETENESS (WORKING+TEST) (%) : 7.43
REMARK   3   REFLECTIONS IN BIN   (WORKING+TEST) : 497
REMARK   3   BIN R VALUE          (WORKING+TEST) : 0.5777
REMARK   3   REFLECTIONS IN BIN    (WORKING SET) : 473
REMARK   3   BIN R VALUE           (WORKING SET) : 0.5753
REMARK   3   BIN FREE R VALUE                    : 0.6274
REMARK   3   BIN FREE R VALUE TEST SET SIZE  (%) : 4.83
REMARK   3   BIN FREE R VALUE TEST SET COUNT     : 24
REMARK   3   ESTIMATED ERROR OF BIN FREE R VALUE : NULL
REMARK   3
REMARK   3  NUMBER OF NON-HYDROGEN ATOMS USED IN REFINEMENT.
REMARK   3   PROTEIN ATOMS            : 1476
REMARK   3   NUCLEIC ACID ATOMS       : 0
REMARK   3   HETEROGEN ATOMS          : 26
REMARK   3   SOLVENT ATOMS            : 127
REMARK   3
REMARK   3  B VALUES.
REMARK   3   FROM WILSON PLOT           (A**2) : 32.97
REMARK   3   MEAN B VALUE      (OVERALL, A**2) : 51.05
REMARK   3   OVERALL ANISOTROPIC B VALUE.
REMARK   3    B11 (A**2) : -6.77060
REMARK   3    B22 (A**2) : -6.77060
REMARK   3    B33 (A**2) : 13.54120
REMARK   3    B12 (A**2) : 0.00000
REMARK   3    B13 (A**2) : 0.00000
REMARK   3    B23 (A**2) : 0.00000
REMARK   3
REMARK   3  ESTIMATED COORDINATE ERROR.
REMARK   3   ESD FROM LUZZATI PLOT                    (A) : 0.33
REMARK   3   DPI (BLOW EQ-10) BASED ON R VALUE        (A) : 0.126
REMARK   3   DPI (BLOW EQ-9) BASED ON FREE R VALUE    (A) : 0.123
REMARK   3   DPI (CRUICKSHANK) BASED ON R VALUE       (A) : 0.118
REMARK   3   DPI (CRUICKSHANK) BASED ON FREE R VALUE  (A) : 0.118
REMARK   3
REMARK   3   REFERENCES: BLOW, D. (2002) ACTA CRYST D58, 792-797
REMARK   3               CRUICKSHANK, D.W.J. (1999) ACTA CRYST D55, 583-601
REMARK   3
REMARK   3  CORRELATION COEFFICIENTS.
REMARK   3   CORRELATION COEFFICIENT FO-FC      : 0.943
REMARK   3   CORRELATION COEFFICIENT FO-FC FREE : 0.929
REMARK   3
REMARK   3  X-RAY WEIGHT : 6.40
REMARK   3
REMARK   3  GEOMETRY FUNCTION.                                                  
REMARK   3   RESTRAINT LIBRARIES.                                               
REMARK   3    NUMBER OF LIBRARIES USED :   9                                    
REMARK   3    LIBRARY  1 : protgeo_eh99.dat (V1.6.4.20) 20220523  STANDARD      
REMARK   3                 AMINO ACID DICTIONARY. BONDS AND ANGLES FROM         
REMARK   3                 ENGH AND HUBER EH99. OTHER VALUES BASED ON           
REMARK   3                 PREVIOUS TNT OR TAKEN FROM CCP4. INCLUDES            
REMARK   3                 HYDROGEN ATOMS.                                      
REMARK   3    LIBRARY  2 : exoticaa.dat (V1.3.4.16) 20220523  COLLECTION        
REMARK   3                 OF NON-STANDARD AMINO ACIDS, MAINLY EH91             
REMARK   3                 WITHOUT IDEAL DISTANCE INFO                          
REMARK   3    LIBRARY  3 : nuclgeo.dat (V1.13.4.9) 20221011                     
REMARK   3    LIBRARY  4 : bcorrel.dat (V1.15.10.2) 20190616                    
REMARK   3    LIBRARY  5 : contact.dat (V1.15.12.10) 20191121                   
REMARK   3    LIBRARY  6 : idealdist_contact.dat (V1.3.4.14) 20230724           
REMARK   3                 IDEAL-DISTANCE CONTACT TERM DATA AS USED IN          
REMARK   3                 PROLSQ. VALUES USED HERE ARE BASEd ON DATA           
REMARK   3                 HARVESTING OF PDB AS OF 20190109                     
REMARK   3    LIBRARY  7 : restraints for LIG (unknown) from cif                
REMARK   3                 dictionary Z270760338.cif; generated by GRADE        
REMARK   3                 1.2.21 (Feb 03 2022) from SMILES                     
REMARK   3                 CN(C)C(=O)N1CCNCC1 using MOGUL 1.8.5(274361),        
REMARK   3                 CSD as541be, with quantum mechanics RM1              
REMARK   3    LIBRARY  8 : restraints for DMS (DIMETHYL SULFOXIDE) from         
REMARK   3                 cif dictionary DMS.cif; generated by grade2          
REMARK   3                 version 1.1.0a7 from                                 
REMARK   3                 PDB_chemical_components_definition_file              
REMARK   3                 ftp://ftp.ebi.ac.uk/pub/databases/msd/pdbechem_v     
REMARK   3                 2/D/DMS/DMS.cif using RDKit 2021.03.4                
REMARK   3                 ((DatabaseID PDB-DMS))                               
REMARK   3    LIBRARY  9 : assume.dat (V1.9.4.3) 20221011                       
REMARK   3                                                                      
REMARK   3   NUMBER OF GEOMETRIC FUNCTION TERMS DEFINED : 15                    
REMARK   3   TERM                          COUNT    WEIGHT   FUNCTION.          
REMARK   3    BOND LENGTHS              :   1673 ;   2.00 ;  HARMONIC           
REMARK   3    BOND ANGLES               :   2297 ;   2.00 ;  HARMONIC           
REMARK   3    TORSION ANGLES            :    578 ;   2.00 ;  SINUSOIDAL         
REMARK   3    TRIGONAL CARBON PLANES    :   NULL ;   NULL ;  NULL               
REMARK   3    GENERAL PLANES            :    294 ;   5.00 ;  HARMONIC           
REMARK   3    ISOTROPIC THERMAL FACTORS :   1673 ;  10.00 ;  HARMONIC           
REMARK   3    BAD NON-BONDED CONTACTS   :   NULL ;   NULL ;  NULL               
REMARK   3    IMPROPER TORSIONS         :   NULL ;   NULL ;  NULL               
REMARK   3    PSEUDOROTATION ANGLES     :   NULL ;   NULL ;  NULL               
REMARK   3    CHIRAL IMPROPER TORSION   :    210 ;   5.00 ;  SEMIHARMONIC       
REMARK   3    SUM OF OCCUPANCIES        :   NULL ;   NULL ;  NULL               
REMARK   3    UTILITY DISTANCES         :   NULL ;   NULL ;  NULL               
REMARK   3    UTILITY ANGLES            :   NULL ;   NULL ;  NULL               
REMARK   3    UTILITY TORSION           :   NULL ;   NULL ;  NULL               
REMARK   3    IDEAL-DIST CONTACT TERM   :   1374 ;   4.00 ;  SEMIHARMONIC       
REMARK   3                                                                      
REMARK   3   RMS DEVIATIONS FROM IDEAL VALUES.                                  
REMARK   3   BOND LENGTHS                       (A) : 0.010                     
REMARK   3   BOND ANGLES                  (DEGREES) : 1.04                      
REMARK   3   PEPTIDE OMEGA TORSION ANGLES (DEGREES) : 3.55                      
REMARK   3   OTHER TORSION ANGLES         (DEGREES) : 16.23                     
REMARK   3                                                                      
REMARK   3   SIMILARITY.                                                        
REMARK   3    NCS.                                                              
REMARK   3     NCS METHOD: NONE                                                 
REMARK   3    TARGET RESTRAINTS.                                                
REMARK   3     TARGET REPRESENTATION : NONE                                     
REMARK   3     TARGET STRUCTURE : NULL                                          
REMARK   3                                                                      
REMARK   3  TLS DETAILS.                                                        
REMARK   3   NUMBER OF TLS GROUPS  :            2                               
REMARK   3                                                                      
REMARK   3   TLS GROUP :            1                                           
REMARK   3    SET : { A|* }                                                     
REMARK   3    ORIGIN FOR THE GROUP (A):  -14.0444   -2.0758  -19.7300           
REMARK   3    T TENSOR                                                          
REMARK   3     T11:   -0.0116 T22:   -0.1059                                    
REMARK   3     T33:   -0.1053 T12:    0.1334                                    
REMARK   3     T13:    0.1077 T23:    0.0772                                    
REMARK   3    L TENSOR                                                          
REMARK   3     L11:    2.4787 L22:    2.8727                                    
REMARK   3     L33:    3.2321 L12:   -1.1883                                    
REMARK   3     L13:   -0.1122 L23:    0.4409                                    
REMARK   3    S TENSOR                                                          
REMARK   3     S11:    0.3736 S12:    0.2608 S13:    0.2178                     
REMARK   3     S21:   -0.4448 S22:   -0.2496 S23:   -0.1601                     
REMARK   3     S31:   -0.0502 S32:    0.3534 S33:   -0.1241                     
REMARK   3                                                                      
REMARK   3   TLS GROUP :            2                                           
REMARK   3    SET : { B|* }                                                     
REMARK   3    ORIGIN FOR THE GROUP (A):  -17.9647    0.5568  -15.6850           
REMARK   3    T TENSOR                                                          
REMARK   3     T11:    0.0727 T22:   -0.0340                                    
REMARK   3     T33:    0.0342 T12:    0.1434                                    
REMARK   3     T13:    0.0735 T23:    0.0429                                    
REMARK   3    L TENSOR                                                          
REMARK   3     L11:    1.0283 L22:    0.9457                                    
REMARK   3     L33:    1.6546 L12:   -0.4466                                    
REMARK   3     L13:    0.2400 L23:   -0.1141                                    
REMARK   3    S TENSOR                                                          
REMARK   3     S11:    0.2619 S12:    0.1027 S13:    0.1442                     
REMARK   3     S21:   -0.1164 S22:   -0.2062 S23:    0.0561                     
REMARK   3     S31:    0.0441 S32:    0.1553 S33:   -0.0556                     
REMARK   3                                                                      
REMARK   3  REFINEMENT NOTES.                                                   
REMARK   3   NUMBER OF REFINEMENT NOTES :   1                                   
REMARK   3   NOTE   1 : IDEAL-DIST CONTACT TERM CONTACT SETUP. ALL ATOMS        
REMARK   3               HAVE CCP4 ATOM TYPE FROM LIBRARY                       
REMARK   3
REMARK   3  OTHER REFINEMENT REMARKS: NULL
REMARK   3
REMARK 290                                                            
REMARK 290 CRYSTALLOGRAPHIC SYMMETRY                                  
REMARK 290 SYMMETRY OPERATORS FOR SPACE GROUP: P 43 2 2               
REMARK 290                                                            
REMARK 290      SYMOP   SYMMETRY                                      
REMARK 290     NNNMMM   OPERATOR                                      
REMARK 290       1555   X,Y,Z                                         
REMARK 290       2555   -X,-Y,1/2+Z                                   
REMARK 290       3555   -Y,X,3/4+Z                                    
REMARK 290       4555   Y,-X,1/4+Z                                    
REMARK 290       5555   -X,Y,-Z                                       
REMARK 290       6555   X,-Y,1/2-Z                                    
REMARK 290       7555   Y,X,1/4-Z                                     
REMARK 290       8555   -Y,-X,3/4-Z                                   
REMARK 290                                                            
REMARK 290     WHERE NNN -> OPERATOR NUMBER                           
REMARK 290           MMM -> TRANSLATION VECTOR                        
REMARK 290                                                            
REMARK 290 CRYSTALLOGRAPHIC SYMMETRY TRANSFORMATIONS                  
REMARK 290 THE FOLLOWING TRANSFORMATIONS OPERATE ON THE ATOM/HETATM   
REMARK 290 RECORDS IN THIS ENTRY TO PRODUCE CRYSTALLOGRAPHICALLY      
REMARK 290 RELATED MOLECULES.                                         
REMARK 290   SMTRY1   1  1.000000  0.000000  0.000000        0.00000
REMARK 290   SMTRY2   1  0.000000  1.000000  0.000000        0.00000
REMARK 290   SMTRY3   1  0.000000  0.000000  1.000000        0.00000
REMARK 290   SMTRY1   2 -1.000000  0.000000  0.000000        0.00000
REMARK 290   SMTRY2   2  0.000000 -1.000000  0.000000        0.00000
REMARK 290   SMTRY3   2  0.000000  0.000000  1.000000      108.18900
REMARK 290   SMTRY1   3  0.000000 -1.000000  0.000000        0.00000
REMARK 290   SMTRY2   3  1.000000  0.000000  0.000000        0.00000
REMARK 290   SMTRY3   3  0.000000  0.000000  1.000000      162.28350
REMARK 290   SMTRY1   4  0.000000  1.000000  0.000000        0.00000
REMARK 290   SMTRY2   4 -1.000000  0.000000  0.000000        0.00000
REMARK 290   SMTRY3   4  0.000000  0.000000  1.000000       54.09450
REMARK 290   SMTRY1   5 -1.000000  0.000000  0.000000        0.00000
REMARK 290   SMTRY2   5  0.000000  1.000000  0.000000        0.00000
REMARK 290   SMTRY3   5  0.000000  0.000000 -1.000000        0.00000
REMARK 290   SMTRY1   6  1.000000  0.000000  0.000000        0.00000
REMARK 290   SMTRY2   6  0.000000 -1.000000  0.000000        0.00000
REMARK 290   SMTRY3   6  0.000000  0.000000 -1.000000      108.18900
REMARK 290   SMTRY1   7  0.000000  1.000000  0.000000        0.00000
REMARK 290   SMTRY2   7  1.000000  0.000000  0.000000        0.00000
REMARK 290   SMTRY3   7  0.000000  0.000000 -1.000000       54.09450
REMARK 290   SMTRY1   8  0.000000 -1.000000  0.000000        0.00000
REMARK 290   SMTRY2   8 -1.000000  0.000000  0.000000        0.00000
REMARK 290   SMTRY3   8  0.000000  0.000000 -1.000000      162.28350
REMARK 290                                                            
REMARK 290 REMARK: NULL                                               
CRYST1   42.380   42.380  216.378  90.00  90.00  90.00 P 43 2 2                 


$$$$
Zx0990b_ligand
  PyMOL3.0          3D                             0

 11 11  0  0  0  0  0  0  0  0999 V2000
   -7.0120    2.6670  -28.6840 C   0  0  0  0  0  0  0  0  0  0  0  0
   -8.2390    2.7850  -29.2480 N   0  0  0  0  0  0  0  0  0  0  0  0
   -6.4710    3.6020  -28.1210 O   0  0  0  0  0  0  0  0  0  0  0  0
   -8.5290    3.7980  -30.2560 C   0  0  0  0  0  0  0  0  0  0  0  0
   -6.4190    1.4530  -28.8040 N   0  0  0  0  0  0  0  0  0  0  0  0
   -9.3600    1.9220  -28.8950 C   0  0  0  0  0  0  0  0  0  0  0  0
   -6.0230   -1.1670  -28.9570 N   0  0  0  0  0  0  0  0  0  0  0  0
   -5.6810    0.9060  -27.6570 C   0  0  0  0  0  0  0  0  0  0  0  0
   -5.2130   -0.5170  -27.9080 C   0  0  0  0  0  0  0  0  0  0  0  0
   -5.8950   -0.4670  -30.2600 C   0  0  0  0  0  0  0  0  0  0  0  0
   -5.8750    1.0470  -30.1080 C   0  0  0  0  0  0  0  0  0  0  0  0
  1  2  1  0  0  0  0
  1  5  1  0  0  0  0
  2  4  1  0  0  0  0
  2  6  1  0  0  0  0
  1  3  2  0  0  0  0
  5  8  1  0  0  0  0
  5 11  1  0  0  0  0
  7 10  1  0  0  0  0
  8  9  1  0  0  0  0
  7  9  1  0  0  0  0
 10 11  1  0  0  0  0
M  END
>  <pdb_header>
COMPND    XX01ZVNS2B-x0990_B_302_XX01ZVNS2B-x0788+B+303+1


$$$$
Zx1046a
  PyMOL3.0          3D                             0

 32 32  0  0  0  0  0  0  0  0999 V2000
   -5.2890    7.4790  -25.4370 N   0  0  0  0  0  0  0  0  0  0  0  0
   -8.2000   10.9570  -26.8370 C   0  0  0  0  0  0  0  0  0  0  0  0
   -7.8110   10.0120  -25.8810 O   0  0  0  0  0  0  0  0  0  0  0  0
   -6.7940    9.1460  -26.3450 C   0  0  0  0  0  0  0  0  0  0  0  0
   -1.3530    4.9100  -24.3110 N   0  0  0  0  0  0  0  0  0  0  0  0
   -6.7680    8.5030  -24.0520 O   0  0  0  0  0  0  0  0  0  0  0  0
   -6.2840    8.3490  -25.1630 C   0  0  0  0  0  0  0  0  0  0  0  0
   -0.9140    5.9240  -26.2970 O   0  0  0  0  0  0  0  0  0  0  0  0
   -4.6680    6.5670  -24.5620 C   0  0  0  0  0  0  0  0  0  0  0  0
   -5.3010    6.0080  -23.4600 C   0  0  0  0  0  0  0  0  0  0  0  0
   -4.6510    5.0400  -22.7250 C   0  0  0  0  0  0  0  0  0  0  0  0
   -3.3560    4.6700  -23.0280 C   0  0  0  0  0  0  0  0  0  0  0  0
   -2.7020    5.2550  -24.1020 C   0  0  0  0  0  0  0  0  0  0  0  0
   -0.5420    5.2320  -25.3410 C   0  0  0  0  0  0  0  0  0  0  0  0
    0.8450    4.6570  -25.2570 C   0  0  0  0  0  0  0  0  0  0  0  0
   -3.3700    6.1850  -24.8880 C   0  0  0  0  0  0  0  0  0  0  0  0
   -7.1300    5.0520  -18.9480 N   0  0  0  0  0  0  0  0  0  0  0  0
   -9.0390    4.6300  -14.6370 C   0  0  0  0  0  0  0  0  0  0  0  0
   -8.8780    4.3620  -16.0200 O   0  0  0  0  0  0  0  0  0  0  0  0
   -7.7440    4.9950  -16.5800 C   0  0  0  0  0  0  0  0  0  0  0  0
   -3.4330    7.6210  -20.7790 N   0  0  0  0  0  0  0  0  0  0  0  0
   -9.2370    4.4020  -18.3060 O   0  0  0  0  0  0  0  0  0  0  0  0
   -8.0980    4.7790  -18.0250 C   0  0  0  0  0  0  0  0  0  0  0  0
   -5.1370    9.0730  -21.1850 O   0  0  0  0  0  0  0  0  0  0  0  0
   -5.8120    5.5560  -18.7770 C   0  0  0  0  0  0  0  0  0  0  0  0
   -4.9480    5.0640  -17.8050 C   0  0  0  0  0  0  0  0  0  0  0  0
   -3.6150    5.4460  -17.8080 C   0  0  0  0  0  0  0  0  0  0  0  0
   -3.1290    6.3060  -18.7790 C   0  0  0  0  0  0  0  0  0  0  0  0
   -3.9870    6.8130  -19.7460 C   0  0  0  0  0  0  0  0  0  0  0  0
   -4.0150    8.6470  -21.4510 C   0  0  0  0  0  0  0  0  0  0  0  0
   -3.1920    9.2240  -22.5740 C   0  0  0  0  0  0  0  0  0  0  0  0
   -5.3360    6.4590  -19.7250 C   0  0  0  0  0  0  0  0  0  0  0  0
  1  7  1  0  0  0  0
  2  3  1  0  0  0  0
  3  4  1  0  0  0  0
  5 13  1  0  0  0  0
  4  7  1  0  0  0  0
  6  7  2  0  0  0  0
  8 14  2  0  0  0  0
  1  9  1  0  0  0  0
  9 10  4  0  0  0  0
 10 11  4  0  0  0  0
 11 12  4  0  0  0  0
 12 13  4  0  0  0  0
 13 16  4  0  0  0  0
  5 14  1  0  0  0  0
 14 15  1  0  0  0  0
  9 16  4  0  0  0  0
 17 23  1  0  0  0  0
 18 19  1  0  0  0  0
 19 20  1  0  0  0  0
 21 29  1  0  0  0  0
 20 23  1  0  0  0  0
 22 23  2  0  0  0  0
 24 30  2  0  0  0  0
 17 25  1  0  0  0  0
 25 26  4  0  0  0  0
 26 27  4  0  0  0  0
 27 28  4  0  0  0  0
 28 29  4  0  0  0  0
 29 32  4  0  0  0  0
 21 30  1  0  0  0  0
 30 31  1  0  0  0  0
 25 32  4  0  0  0  0
M  END
>  <pdb_header>
HEADER    ----                                    25-MAY-23                     
TITLE     ---                                                                   
EXPDTA    X-RAY DIFFRACTION                                                     
REMARK --------------------- added by autoBUSTER ---------------------------------START
REMARK run at   = Mon Sep  4 13:24:03 BST 2023
REMARK     in   = /dls/labxchem/data/lb32627/lb32627-65/processing/analysis/model_building/XX01ZVNS2B-x1046
REMARK     user = kyf22269
REMARK     cmd  = \
REMARK            /dls_sw/apps/GPhL/BUSTER/20230726/autoBUSTER/bin/linux64/refine \
REMARK            -p \
REMARK            /dls/labxchem/data/lb32627/lb32627-65/processing/analysis/model_building/XX01ZVNS2B-x1046/cootOut/Refi
REMARK            -m \
REMARK            /dls/labxchem/data/lb32627/lb32627-65/processing/analysis/model_building/XX01ZVNS2B-x1046/XX01ZVNS2B-x
REMARK            -l \
REMARK            /dls/labxchem/data/lb32627/lb32627-65/processing/analysis/model_building/XX01ZVNS2B-x1046/Z31735562.ci
REMARK            -autoncs -M TLSbasic -d Refine_8
REMARK Files used:
REMARK   PDB              = Refine_8/pdbchk.pdb
REMARK   MTZ              = /dls/labxchem/data/lb32627/lb32627-65/processing/analysis/model_building/XX01ZVNS2B-x1046/XX
REMARK output written to subdirectory = Refine_8
REMARK best refinement for F,SIGF with R/Rfree 0.2174/0.2412
REMARK header records are copied from input PDB file (apart from REMARK 3!)
REMARK --------------------- added by autoBUSTER -----------------------------------END
REMARK --------------------- added by autoBUSTER -------------------------------
REMARK run at   = Thu Aug 10 13:54:05 BST 2023                                  
REMARK     in   = /dls/labxchem/data/lb32627/lb32627-65/processing/analysis/mode
REMARK     user = kyf22269                                                      
REMARK     cmd  = \                                                             
REMARK            /dls_sw/apps/GPhL/BUSTER/20230614/autoBUSTER/bin/linux64/refin
REMARK            -p \                                                          
REMARK            /dls/labxchem/data/lb32627/lb32627-65/processing/analysis/mode
REMARK            -m \                                                          
REMARK            /dls/labxchem/data/lb32627/lb32627-65/processing/analysis/mode
REMARK            -l \                                                          
REMARK            /dls/labxchem/data/lb32627/lb32627-65/processing/analysis/mode
REMARK            -autoncs -M TLSbasic -d Refine_7                              
REMARK Files used:                                                              
REMARK   PDB              = Refine_7/pdbchk.pdb                                 
REMARK   MTZ              = /dls/labxchem/data/lb32627/lb32627-65/processing/ana
REMARK output written to subdirectory = Refine_7                                
REMARK best refinement for F,SIGF with R/Rfree 0.2174/0.2412                    
REMARK header records are copied from input PDB file (apart from REMARK 3!)     
REMARK --------------------- added by autoBUSTER -------------------------------
REMARK --------------------- added by autoBUSTER -------------------------------
REMARK run at   = Thu Aug 10 10:24:24 BST 2023                                  
REMARK     in   = /dls/labxchem/data/lb32627/lb32627-65/processing/analysis/mode
REMARK     user = kyf22269                                                      
REMARK     cmd  = \                                                             
REMARK            /dls_sw/apps/GPhL/BUSTER/20230614/autoBUSTER/bin/linux64/refin
REMARK            -p \                                                          
REMARK            /dls/labxchem/data/lb32627/lb32627-65/processing/analysis/mode
REMARK            -m \                                                          
REMARK            /dls/labxchem/data/lb32627/lb32627-65/processing/analysis/mode
REMARK            -l \                                                          
REMARK            /dls/labxchem/data/lb32627/lb32627-65/processing/analysis/mode
REMARK            -autoncs -M TLSbasic -d Refine_6                              
REMARK Files used:                                                              
REMARK   PDB              = Refine_6/pdbchk.pdb                                 
REMARK   MTZ              = /dls/labxchem/data/lb32627/lb32627-65/processing/ana
REMARK output written to subdirectory = Refine_6                                
REMARK best refinement for F,SIGF with R/Rfree 0.2178/0.2406                    
REMARK header records are copied from input PDB file (apart from REMARK 3!)     
REMARK --------------------- added by autoBUSTER -------------------------------
REMARK --------------------- added by autoBUSTER -------------------------------
REMARK run at   = Wed Aug  9 13:57:10 BST 2023                                  
REMARK     in   = /dls/labxchem/data/lb32627/lb32627-65/processing/analysis/mode
REMARK     user = kyf22269                                                      
REMARK     cmd  = \                                                             
REMARK            /dls_sw/apps/GPhL/BUSTER/20230614/autoBUSTER/bin/linux64/refin
REMARK            -p \                                                          
REMARK            /dls/labxchem/data/lb32627/lb32627-65/processing/analysis/mode
REMARK            -m \                                                          
REMARK            /dls/labxchem/data/lb32627/lb32627-65/processing/analysis/mode
REMARK            -l \                                                          
REMARK            /dls/labxchem/data/lb32627/lb32627-65/processing/analysis/mode
REMARK            -autoncs -M TLSbasic -d Refine_5                              
REMARK Files used:                                                              
REMARK   PDB              = Refine_5/pdbchk.pdb                                 
REMARK   MTZ              = /dls/labxchem/data/lb32627/lb32627-65/processing/ana
REMARK output written to subdirectory = Refine_5                                
REMARK best refinement for F,SIGF with R/Rfree 0.2188/0.2387                    
REMARK header records are copied from input PDB file (apart from REMARK 3!)     
REMARK --------------------- added by autoBUSTER -------------------------------
REMARK --------------------- added by autoBUSTER -------------------------------
REMARK run at   = Fri Aug  4 18:49:18 BST 2023                                  
REMARK     in   = /dls/labxchem/data/lb32627/lb32627-65/processing/analysis/mode
REMARK     user = kyf22269                                                      
REMARK     cmd  = \                                                             
REMARK            /dls_sw/apps/GPhL/BUSTER/20230614/autoBUSTER/bin/linux64/refin
REMARK            -p \                                                          
REMARK            /dls/labxchem/data/lb32627/lb32627-65/processing/analysis/mode
REMARK            -m \                                                          
REMARK            /dls/labxchem/data/lb32627/lb32627-65/processing/analysis/mode
REMARK            -l \                                                          
REMARK            /dls/labxchem/data/lb32627/lb32627-65/processing/analysis/mode
REMARK            -autoncs -M TLSbasic -d Refine_4                              
REMARK Files used:                                                              
REMARK   PDB              = Refine_4/pdbchk.pdb                                 
REMARK   MTZ              = /dls/labxchem/data/lb32627/lb32627-65/processing/ana
REMARK output written to subdirectory = Refine_4                                
REMARK best refinement for F,SIGF with R/Rfree 0.2209/0.2442                    
REMARK header records are copied from input PDB file (apart from REMARK 3!)     
REMARK --------------------- added by autoBUSTER -------------------------------
REMARK --------------------- added by autoBUSTER -------------------------------
REMARK run at   = Fri Aug  4 10:00:16 BST 2023                                  
REMARK     in   = /dls/labxchem/data/lb32627/lb32627-65/processing/analysis/mode
REMARK     user = kyf22269                                                      
REMARK     cmd  = \                                                             
REMARK            /dls_sw/apps/GPhL/BUSTER/20230614/autoBUSTER/bin/linux64/refin
REMARK            -p \                                                          
REMARK            /dls/labxchem/data/lb32627/lb32627-65/processing/analysis/mode
REMARK            -m \                                                          
REMARK            /dls/labxchem/data/lb32627/lb32627-65/processing/analysis/mode
REMARK            -l \                                                          
REMARK            /dls/labxchem/data/lb32627/lb32627-65/processing/analysis/mode
REMARK            -autoncs -M TLSbasic -d Refine_3                              
REMARK Files used:                                                              
REMARK   PDB              = Refine_3/pdbchk.pdb                                 
REMARK   MTZ              = /dls/labxchem/data/lb32627/lb32627-65/processing/ana
REMARK output written to subdirectory = Refine_3                                
REMARK best refinement for F,SIGF with R/Rfree 0.2222/0.2427                    
REMARK header records are copied from input PDB file (apart from REMARK 3!)     
REMARK --------------------- added by autoBUSTER -------------------------------
REMARK --------------------- added by autoBUSTER -------------------------------
REMARK run at   = Fri May 26 13:40:20 BST 2023                                  
REMARK     in   = /dls/labxchem/data/lb32627/lb32627-65/processing/analysis/mode
REMARK     user = xau79897                                                      
REMARK     cmd  = \                                                             
REMARK            /dls_sw/apps/GPhL/BUSTER/20230217/autoBUSTER/bin/linux64/refin
REMARK            -p \                                                          
REMARK            /dls/labxchem/data/lb32627/lb32627-65/processing/analysis/mode
REMARK            -m \                                                          
REMARK            /dls/labxchem/data/lb32627/lb32627-65/processing/analysis/mode
REMARK            -l \                                                          
REMARK            /dls/labxchem/data/lb32627/lb32627-65/processing/analysis/mode
REMARK            -autoncs -M TLSbasic -WAT -B user -Gelly gelly.dat \          
REMARK            StopOnGellySanityCheckError=no -d Refine_2                    
REMARK Files used:                                                              
REMARK   PDB              = Refine_2/pdbchk.pdb                                 
REMARK   MTZ              = /dls/labxchem/data/lb32627/lb32627-65/processing/ana
REMARK   Gelly commands       = /dls/labxchem/data/lb32627/lb32627-65/processing
REMARK output written to subdirectory = Refine_2                                
REMARK best refinement for F,SIGF with R/Rfree 0.2238/0.2371                    
REMARK header records are copied from input PDB file (apart from REMARK 3!)     
REMARK --------------------- added by autoBUSTER -------------------------------
REMARK   2                                                            
REMARK   2 RESOLUTION.    1.32 ANGSTROMS.
REMARK   3
REMARK   3 REFINEMENT.
REMARK   3   PROGRAM     : BUSTER 2.10.4 (26-JUL-2023)
REMARK   3   AUTHORS     : BRICOGNE,BLANC,BRANDL,FLENSBURG,KELLER,
REMARK   3               : PACIOREK,ROVERSI,SHARFF,SMART,VONRHEIN,WOMACK;
REMARK   3               : MATTHEWS,TEN EYCK,TRONRUD
REMARK   3
REMARK   3  DATA USED IN REFINEMENT.
REMARK   3   RESOLUTION RANGE HIGH (ANGSTROMS) : 1.321
REMARK   3   RESOLUTION RANGE LOW  (ANGSTROMS) : 15.12
REMARK   3   DATA CUTOFF            (SIGMA(F)) : 0.000
REMARK   3   COMPLETENESS FOR RANGE        (%) : 95.2
REMARK   3   NUMBER OF REFLECTIONS             : 45337
REMARK   3
REMARK   3  FIT TO DATA USED IN REFINEMENT.
REMARK   3   CROSS-VALIDATION METHOD          : THROUGHOUT
REMARK   3   FREE R VALUE TEST SET SELECTION  : RANDOM
REMARK   3   R VALUE     (WORKING + TEST SET) : 0.2186
REMARK   3   R VALUE            (WORKING SET) : 0.2174
REMARK   3   FREE R VALUE                     : 0.2412
REMARK   3   FREE R VALUE TEST SET SIZE   (%) : 5.060
REMARK   3   FREE R VALUE TEST SET COUNT      : 2292
REMARK   3   ESTIMATED ERROR OF FREE R VALUE  : NULL
REMARK   3
REMARK   3  FIT IN THE HIGHEST RESOLUTION BIN.
REMARK   3   TOTAL NUMBER OF BINS USED           : 51
REMARK   3   BIN RESOLUTION RANGE HIGH       (A) : 1.32
REMARK   3   BIN RESOLUTION RANGE LOW        (A) : 1.35
REMARK   3   BIN COMPLETENESS (WORKING+TEST) (%) : 33.27
REMARK   3   REFLECTIONS IN BIN   (WORKING+TEST) : 907
REMARK   3   BIN R VALUE          (WORKING+TEST) : 0.4321
REMARK   3   REFLECTIONS IN BIN    (WORKING SET) : 869
REMARK   3   BIN R VALUE           (WORKING SET) : 0.4347
REMARK   3   BIN FREE R VALUE                    : 0.3712
REMARK   3   BIN FREE R VALUE TEST SET SIZE  (%) : 4.19
REMARK   3   BIN FREE R VALUE TEST SET COUNT     : 38
REMARK   3   ESTIMATED ERROR OF BIN FREE R VALUE : NULL
REMARK   3
REMARK   3  NUMBER OF NON-HYDROGEN ATOMS USED IN REFINEMENT.
REMARK   3   PROTEIN ATOMS            : 1476
REMARK   3   NUCLEIC ACID ATOMS       : 0
REMARK   3   HETEROGEN ATOMS          : 61
REMARK   3   SOLVENT ATOMS            : 135
REMARK   3
REMARK   3  B VALUES.
REMARK   3   FROM WILSON PLOT           (A**2) : 25.26
REMARK   3   MEAN B VALUE      (OVERALL, A**2) : 39.72
REMARK   3   OVERALL ANISOTROPIC B VALUE.
REMARK   3    B11 (A**2) : -3.07500
REMARK   3    B22 (A**2) : -3.07500
REMARK   3    B33 (A**2) : 6.15000
REMARK   3    B12 (A**2) : 0.00000
REMARK   3    B13 (A**2) : 0.00000
REMARK   3    B23 (A**2) : 0.00000
REMARK   3
REMARK   3  ESTIMATED COORDINATE ERROR.
REMARK   3   ESD FROM LUZZATI PLOT                    (A) : 0.23
REMARK   3   DPI (BLOW EQ-10) BASED ON R VALUE        (A) : 0.065
REMARK   3   DPI (BLOW EQ-9) BASED ON FREE R VALUE    (A) : 0.065
REMARK   3   DPI (CRUICKSHANK) BASED ON R VALUE       (A) : 0.061
REMARK   3   DPI (CRUICKSHANK) BASED ON FREE R VALUE  (A) : 0.063
REMARK   3
REMARK   3   REFERENCES: BLOW, D. (2002) ACTA CRYST D58, 792-797
REMARK   3               CRUICKSHANK, D.W.J. (1999) ACTA CRYST D55, 583-601
REMARK   3
REMARK   3  CORRELATION COEFFICIENTS.
REMARK   3   CORRELATION COEFFICIENT FO-FC      : 0.960
REMARK   3   CORRELATION COEFFICIENT FO-FC FREE : 0.956
REMARK   3
REMARK   3  X-RAY WEIGHT : 6.11
REMARK   3
REMARK   3  GEOMETRY FUNCTION.                                                  
REMARK   3   RESTRAINT LIBRARIES.                                               
REMARK   3    NUMBER OF LIBRARIES USED :  10                                    
REMARK   3    LIBRARY  1 : protgeo_eh99.dat (V1.6.4.20) 20220523  STANDARD      
REMARK   3                 AMINO ACID DICTIONARY. BONDS AND ANGLES FROM         
REMARK   3                 ENGH AND HUBER EH99. OTHER VALUES BASED ON           
REMARK   3                 PREVIOUS TNT OR TAKEN FROM CCP4. INCLUDES            
REMARK   3                 HYDROGEN ATOMS.                                      
REMARK   3    LIBRARY  2 : exoticaa.dat (V1.3.4.16) 20220523  COLLECTION        
REMARK   3                 OF NON-STANDARD AMINO ACIDS, MAINLY EH91             
REMARK   3                 WITHOUT IDEAL DISTANCE INFO                          
REMARK   3    LIBRARY  3 : nuclgeo.dat (V1.13.4.9) 20221011                     
REMARK   3    LIBRARY  4 : bcorrel.dat (V1.15.10.2) 20190616                    
REMARK   3    LIBRARY  5 : contact.dat (V1.15.12.10) 20191121                   
REMARK   3    LIBRARY  6 : idealdist_contact.dat (V1.3.4.14) 20230724           
REMARK   3                 IDEAL-DISTANCE CONTACT TERM DATA AS USED IN          
REMARK   3                 PROLSQ. VALUES USED HERE ARE BASEd ON DATA           
REMARK   3                 HARVESTING OF PDB AS OF 20190109                     
REMARK   3    LIBRARY  7 : restraints for LIG (unknown) from cif                
REMARK   3                 dictionary Z31735562.cif; generated by GRADE         
REMARK   3                 1.2.21 (Feb 03 2022) from SMILES                     
REMARK   3                 COCC(=O)Nc1cccc(NC(=O)C)c1 using MOGUL               
REMARK   3                 1.8.5(274361), CSD as541be, with quantum             
REMARK   3                 mechanics RM1                                        
REMARK   3    LIBRARY  8 : restraints for DMS (DIMETHYL SULFOXIDE) from         
REMARK   3                 cif dictionary DMS.cif; generated by grade2          
REMARK   3                 version 1.1.0a7 from                                 
REMARK   3                 PDB_chemical_components_definition_file              
REMARK   3                 ftp://ftp.ebi.ac.uk/pub/databases/msd/pdbechem_v     
REMARK   3                 2/D/DMS/DMS.cif using RDKit 2021.03.4                
REMARK   3                 ((DatabaseID PDB-DMS))                               
REMARK   3    LIBRARY  9 : restraints for SO4 (SULFATE ION) from cif            
REMARK   3                 dictionary SO4.cif; generated by grade2 version      
REMARK   3                 1.1.0a7 from                                         
REMARK   3                 PDB_chemical_components_definition_file              
REMARK   3                 ftp://ftp.ebi.ac.uk/pub/databases/msd/pdbechem_v     
REMARK   3                 2/S/SO4/SO4.cif using RDKit 2021.03.4                
REMARK   3                 ((DatabaseID PDB-SO4))                               
REMARK   3    LIBRARY 10 : assume.dat (V1.9.4.3) 20221011                       
REMARK   3                                                                      
REMARK   3   NUMBER OF GEOMETRIC FUNCTION TERMS DEFINED : 15                    
REMARK   3   TERM                          COUNT    WEIGHT   FUNCTION.          
REMARK   3    BOND LENGTHS              :   1612 ;   2.00 ;  HARMONIC           
REMARK   3    BOND ANGLES               :   2189 ;   2.00 ;  HARMONIC           
REMARK   3    TORSION ANGLES            :    545 ;   2.00 ;  SINUSOIDAL         
REMARK   3    TRIGONAL CARBON PLANES    :   NULL ;   NULL ;  NULL               
REMARK   3    GENERAL PLANES            :    290 ;   5.00 ;  HARMONIC           
REMARK   3    ISOTROPIC THERMAL FACTORS :   1612 ;  10.00 ;  HARMONIC           
REMARK   3    BAD NON-BONDED CONTACTS   :   NULL ;   NULL ;  NULL               
REMARK   3    IMPROPER TORSIONS         :   NULL ;   NULL ;  NULL               
REMARK   3    PSEUDOROTATION ANGLES     :   NULL ;   NULL ;  NULL               
REMARK   3    CHIRAL IMPROPER TORSION   :    199 ;   5.00 ;  SEMIHARMONIC       
REMARK   3    SUM OF OCCUPANCIES        :   NULL ;   NULL ;  NULL               
REMARK   3    UTILITY DISTANCES         :   NULL ;   NULL ;  NULL               
REMARK   3    UTILITY ANGLES            :   NULL ;   NULL ;  NULL               
REMARK   3    UTILITY TORSION           :   NULL ;   NULL ;  NULL               
REMARK   3    IDEAL-DIST CONTACT TERM   :   1421 ;   4.00 ;  SEMIHARMONIC       
REMARK   3                                                                      
REMARK   3   RMS DEVIATIONS FROM IDEAL VALUES.                                  
REMARK   3   BOND LENGTHS                       (A) : 0.012                     
REMARK   3   BOND ANGLES                  (DEGREES) : 1.16                      
REMARK   3   PEPTIDE OMEGA TORSION ANGLES (DEGREES) : 4.49                      
REMARK   3   OTHER TORSION ANGLES         (DEGREES) : 21.08                     
REMARK   3                                                                      
REMARK   3   SIMILARITY.                                                        
REMARK   3    NCS.                                                              
REMARK   3     NCS METHOD: NONE                                                 
REMARK   3    TARGET RESTRAINTS.                                                
REMARK   3     TARGET REPRESENTATION : NONE                                     
REMARK   3     TARGET STRUCTURE : NULL                                          
REMARK   3                                                                      
REMARK   3  TLS DETAILS.                                                        
REMARK   3   NUMBER OF TLS GROUPS  :            2                               
REMARK   3                                                                      
REMARK   3   TLS GROUP :            1                                           
REMARK   3    SET : { A|* }                                                     
REMARK   3    ORIGIN FOR THE GROUP (A):  -13.6712   -2.0442  -19.6927           
REMARK   3    T TENSOR                                                          
REMARK   3     T11:    0.0532 T22:    0.0137                                    
REMARK   3     T33:   -0.1109 T12:    0.1914                                    
REMARK   3     T13:    0.0620 T23:    0.0656                                    
REMARK   3    L TENSOR                                                          
REMARK   3     L11:    1.9321 L22:    0.9900                                    
REMARK   3     L33:    1.9971 L12:   -0.3988                                    
REMARK   3     L13:   -0.7341 L23:    0.1386                                    
REMARK   3    S TENSOR                                                          
REMARK   3     S11:    0.2452 S12:    0.1428 S13:    0.0889                     
REMARK   3     S21:   -0.1500 S22:   -0.1899 S23:   -0.0157                     
REMARK   3     S31:    0.0774 S32:    0.1579 S33:   -0.0553                     
REMARK   3                                                                      
REMARK   3   TLS GROUP :            2                                           
REMARK   3    SET : { B|* }                                                     
REMARK   3    ORIGIN FOR THE GROUP (A):  -17.7546    0.4362  -15.8144           
REMARK   3    T TENSOR                                                          
REMARK   3     T11:    0.0989 T22:    0.0616                                    
REMARK   3     T33:   -0.0189 T12:    0.1560                                    
REMARK   3     T13:    0.0611 T23:    0.0429                                    
REMARK   3    L TENSOR                                                          
REMARK   3     L11:    1.0357 L22:    0.2225                                    
REMARK   3     L33:    0.9360 L12:   -0.0360                                    
REMARK   3     L13:   -0.2222 L23:   -0.0612                                    
REMARK   3    S TENSOR                                                          
REMARK   3     S11:    0.2572 S12:    0.0756 S13:    0.0933                     
REMARK   3     S21:   -0.0423 S22:   -0.1935 S23:    0.0475                     
REMARK   3     S31:    0.0857 S32:    0.0541 S33:   -0.0637                     
REMARK   3                                                                      
REMARK   3  REFINEMENT NOTES.                                                   
REMARK   3   NUMBER OF REFINEMENT NOTES :   1                                   
REMARK   3   NOTE   1 : IDEAL-DIST CONTACT TERM CONTACT SETUP. ALL ATOMS        
REMARK   3               HAVE CCP4 ATOM TYPE FROM LIBRARY                       
REMARK   3
REMARK   3  OTHER REFINEMENT REMARKS: NULL
REMARK   3
REMARK 290                                                            
REMARK 290 CRYSTALLOGRAPHIC SYMMETRY                                  
REMARK 290 SYMMETRY OPERATORS FOR SPACE GROUP: P 43 2 2               
REMARK 290                                                            
REMARK 290      SYMOP   SYMMETRY                                      
REMARK 290     NNNMMM   OPERATOR                                      
REMARK 290       1555   X,Y,Z                                         
REMARK 290       2555   -X,-Y,1/2+Z                                   
REMARK 290       3555   -Y,X,3/4+Z                                    
REMARK 290       4555   Y,-X,1/4+Z                                    
REMARK 290       5555   -X,Y,-Z                                       
REMARK 290       6555   X,-Y,1/2-Z                                    
REMARK 290       7555   Y,X,1/4-Z                                     
REMARK 290       8555   -Y,-X,3/4-Z                                   
REMARK 290                                                            
REMARK 290     WHERE NNN -> OPERATOR NUMBER                           
REMARK 290           MMM -> TRANSLATION VECTOR                        
REMARK 290                                                            
REMARK 290 CRYSTALLOGRAPHIC SYMMETRY TRANSFORMATIONS                  
REMARK 290 THE FOLLOWING TRANSFORMATIONS OPERATE ON THE ATOM/HETATM   
REMARK 290 RECORDS IN THIS ENTRY TO PRODUCE CRYSTALLOGRAPHICALLY      
REMARK 290 RELATED MOLECULES.                                         
REMARK 290   SMTRY1   1  1.000000  0.000000  0.000000        0.00000
REMARK 290   SMTRY2   1  0.000000  1.000000  0.000000        0.00000
REMARK 290   SMTRY3   1  0.000000  0.000000  1.000000        0.00000
REMARK 290   SMTRY1   2 -1.000000  0.000000  0.000000        0.00000
REMARK 290   SMTRY2   2  0.000000 -1.000000  0.000000        0.00000
REMARK 290   SMTRY3   2  0.000000  0.000000  1.000000      107.79750
REMARK 290   SMTRY1   3  0.000000 -1.000000  0.000000        0.00000
REMARK 290   SMTRY2   3  1.000000  0.000000  0.000000        0.00000
REMARK 290   SMTRY3   3  0.000000  0.000000  1.000000      161.69625
REMARK 290   SMTRY1   4  0.000000  1.000000  0.000000        0.00000
REMARK 290   SMTRY2   4 -1.000000  0.000000  0.000000        0.00000
REMARK 290   SMTRY3   4  0.000000  0.000000  1.000000       53.89875
REMARK 290   SMTRY1   5 -1.000000  0.000000  0.000000        0.00000
REMARK 290   SMTRY2   5  0.000000  1.000000  0.000000        0.00000
REMARK 290   SMTRY3   5  0.000000  0.000000 -1.000000        0.00000
REMARK 290   SMTRY1   6  1.000000  0.000000  0.000000        0.00000
REMARK 290   SMTRY2   6  0.000000 -1.000000  0.000000        0.00000
REMARK 290   SMTRY3   6  0.000000  0.000000 -1.000000      107.79750
REMARK 290   SMTRY1   7  0.000000  1.000000  0.000000        0.00000
REMARK 290   SMTRY2   7  1.000000  0.000000  0.000000        0.00000
REMARK 290   SMTRY3   7  0.000000  0.000000 -1.000000       53.89875
REMARK 290   SMTRY1   8  0.000000 -1.000000  0.000000        0.00000
REMARK 290   SMTRY2   8 -1.000000  0.000000  0.000000        0.00000
REMARK 290   SMTRY3   8  0.000000  0.000000 -1.000000      161.69625
REMARK 290                                                            
REMARK 290 REMARK: NULL                                               
CRYST1   42.398   42.398  215.595  90.00  90.00  90.00 P 43 2 2                 


$$$$
Zx1046a_ligand
  PyMOL3.0          3D                             0

 16 16  0  0  0  0  0  0  0  0999 V2000
   -0.5420    5.2320  -25.3410 C   0  0  0  0  0  0  0  0  0  0  0  0
   -1.3530    4.9100  -24.3110 N   0  0  0  0  0  0  0  0  0  0  0  0
   -0.9140    5.9240  -26.2970 O   0  0  0  0  0  0  0  0  0  0  0  0
    0.8450    4.6570  -25.2570 C   0  0  0  0  0  0  0  0  0  0  0  0
   -5.2890    7.4790  -25.4370 N   0  0  0  0  0  0  0  0  0  0  0  0
   -6.7680    8.5030  -24.0520 O   0  0  0  0  0  0  0  0  0  0  0  0
   -2.7020    5.2550  -24.1020 C   0  0  0  0  0  0  0  0  0  0  0  0
   -7.8110   10.0120  -25.8810 O   0  0  0  0  0  0  0  0  0  0  0  0
   -3.3560    4.6700  -23.0280 C   0  0  0  0  0  0  0  0  0  0  0  0
   -4.6510    5.0400  -22.7250 C   0  0  0  0  0  0  0  0  0  0  0  0
   -5.3010    6.0080  -23.4600 C   0  0  0  0  0  0  0  0  0  0  0  0
   -3.3700    6.1850  -24.8880 C   0  0  0  0  0  0  0  0  0  0  0  0
   -4.6680    6.5670  -24.5620 C   0  0  0  0  0  0  0  0  0  0  0  0
   -6.2840    8.3490  -25.1630 C   0  0  0  0  0  0  0  0  0  0  0  0
   -6.7940    9.1460  -26.3450 C   0  0  0  0  0  0  0  0  0  0  0  0
   -8.2000   10.9570  -26.8370 C   0  0  0  0  0  0  0  0  0  0  0  0
  1  2  1  0  0  0  0
  1  4  1  0  0  0  0
  2  7  1  0  0  0  0
  1  3  2  0  0  0  0
  5 14  1  0  0  0  0
  7  9  4  0  0  0  0
  7 12  4  0  0  0  0
  8 16  1  0  0  0  0
  9 10  4  0  0  0  0
 10 11  4  0  0  0  0
 11 13  4  0  0  0  0
 12 13  4  0  0  0  0
  5 13  1  0  0  0  0
  6 14  2  0  0  0  0
 14 15  1  0  0  0  0
  8 15  1  0  0  0  0
M  END
>  <pdb_header>
COMPND    XX01ZVNS2B-x1046_B_301_XX01ZVNS2B-x1291+B+301+1


$$$$
Zx1098a
  PyMOL3.0          3D                             0

 19 20  0  0  0  0  0  0  0  0999 V2000
   -8.2820    4.5160  -10.3180 N   0  0  0  0  0  0  0  0  0  0  0  0
   -7.9190    4.1870   -8.9470 C   0  0  0  0  0  0  0  0  0  0  0  0
   -7.6670    6.0550  -14.5010 O   0  0  0  0  0  0  0  0  0  0  0  0
   -8.3640    3.6800  -11.3660 C   0  0  0  0  0  0  0  0  0  0  0  0
   -8.6790    4.1260  -13.8330 N   0  0  0  0  0  0  0  0  0  0  0  0
   -8.5800    4.4560  -12.4690 C   0  0  0  0  0  0  0  0  0  0  0  0
   -8.4710    5.8060  -10.6760 N   0  0  0  0  0  0  0  0  0  0  0  0
   -8.1950    4.9830  -14.7890 C   0  0  0  0  0  0  0  0  0  0  0  0
   -8.4010    4.5660  -16.2170 C   0  0  0  0  0  0  0  0  0  0  0  0
   -9.6540    4.0650  -16.5550 C   0  0  0  0  0  0  0  0  0  0  0  0
   -9.9790    3.8360  -17.8790 C   0  0  0  0  0  0  0  0  0  0  0  0
   -9.0580    4.0760  -18.8650 C   0  0  0  0  0  0  0  0  0  0  0  0
   -7.7940    4.5420  -18.5430 C   0  0  0  0  0  0  0  0  0  0  0  0
   -7.4460    4.7920  -17.2240 C   0  0  0  0  0  0  0  0  0  0  0  0
   -6.0520    5.2900  -16.9490 C   0  0  0  0  0  0  0  0  0  0  0  0
   -8.6480    5.7630  -11.9830 C   0  0  0  0  0  0  0  0  0  0  0  0
   -5.2070    5.0500  -17.9630 F   0  0  0  0  0  0  0  0  0  0  0  0
   -5.4980    4.7180  -15.8790 F   0  0  0  0  0  0  0  0  0  0  0  0
   -6.0080    6.6070  -16.7490 F   0  0  0  0  0  0  0  0  0  0  0  0
  1  2  1  0  0  0  0
  1  4  4  0  0  0  0
  5  6  1  0  0  0  0
  4  6  4  0  0  0  0
  6 16  4  0  0  0  0
  1  7  4  0  0  0  0
  3  8  2  0  0  0  0
  5  8  1  0  0  0  0
  8  9  1  0  0  0  0
  9 10  4  0  0  0  0
 10 11  4  0  0  0  0
 11 12  4  0  0  0  0
 12 13  4  0  0  0  0
  9 14  4  0  0  0  0
 13 14  4  0  0  0  0
 14 15  1  0  0  0  0
 15 17  1  0  0  0  0
 15 18  1  0  0  0  0
  7 16  4  0  0  0  0
 15 19  1  0  0  0  0
M  END
>  <pdb_header>
HEADER    ----                                    25-MAY-23                     
TITLE     ---                                                                   
EXPDTA    X-RAY DIFFRACTION                                                     
REMARK --------------------- added by autoBUSTER ---------------------------------START
REMARK run at   = Fri Sep 29 18:34:25 BST 2023
REMARK     in   = /dls/labxchem/data/lb32627/lb32627-65/processing/analysis/model_building/XX01ZVNS2B-x1098
REMARK     user = kyf22269
REMARK     cmd  = \
REMARK            /dls_sw/apps/GPhL/BUSTER/20230726/autoBUSTER/bin/linux64/refine \
REMARK            -p \
REMARK            /dls/labxchem/data/lb32627/lb32627-65/processing/analysis/model_building/XX01ZVNS2B-x1098/cootOut/Refi
REMARK            -m \
REMARK            /dls/labxchem/data/lb32627/lb32627-65/processing/analysis/model_building/XX01ZVNS2B-x1098/XX01ZVNS2B-x
REMARK            -l \
REMARK            /dls/labxchem/data/lb32627/lb32627-65/processing/analysis/model_building/XX01ZVNS2B-x1098/Z396117078.c
REMARK            -autoncs -M TLSbasic -d Refine_6
REMARK Files used:
REMARK   PDB              = Refine_6/pdbchk.pdb
REMARK   MTZ              = /dls/labxchem/data/lb32627/lb32627-65/processing/analysis/model_building/XX01ZVNS2B-x1098/XX
REMARK output written to subdirectory = Refine_6
REMARK best refinement for F,SIGF with R/Rfree 0.2349/0.2667
REMARK header records are copied from input PDB file (apart from REMARK 3!)
REMARK --------------------- added by autoBUSTER -----------------------------------END
REMARK --------------------- added by autoBUSTER -------------------------------
REMARK run at   = Wed Jun 14 19:01:03 BST 2023                                  
REMARK     in   = /dls/labxchem/data/lb32627/lb32627-65/processing/analysis/mode
REMARK     user = xau79897                                                      
REMARK     cmd  = \                                                             
REMARK            /dls_sw/apps/GPhL/BUSTER/20230614/autoBUSTER/bin/linux64/refin
REMARK            -p \                                                          
REMARK            /dls/labxchem/data/lb32627/lb32627-65/processing/analysis/mode
REMARK            -m \                                                          
REMARK            /dls/labxchem/data/lb32627/lb32627-65/processing/analysis/mode
REMARK            -l \                                                          
REMARK            /dls/labxchem/data/lb32627/lb32627-65/processing/analysis/mode
REMARK            -autoncs -M TLSbasic -B user -Gelly gelly.dat \               
REMARK            StopOnGellySanityCheckError=no -d Refine_5                    
REMARK Files used:                                                              
REMARK   PDB              = Refine_5/pdbchk.pdb                                 
REMARK   MTZ              = /dls/labxchem/data/lb32627/lb32627-65/processing/ana
REMARK   Gelly commands       = /dls/labxchem/data/lb32627/lb32627-65/processing
REMARK output written to subdirectory = Refine_5                                
REMARK best refinement for F,SIGF with R/Rfree 0.2356/0.2672                    
REMARK header records are copied from input PDB file (apart from REMARK 3!)     
REMARK --------------------- added by autoBUSTER -------------------------------
REMARK --------------------- added by autoBUSTER -------------------------------
REMARK run at   = Sun May 28 21:04:45 BST 2023                                  
REMARK     in   = /dls/labxchem/data/lb32627/lb32627-65/processing/analysis/mode
REMARK     user = xau79897                                                      
REMARK     cmd  = \                                                             
REMARK            /dls_sw/apps/GPhL/BUSTER/20230217/autoBUSTER/bin/linux64/refin
REMARK            -p \                                                          
REMARK            /dls/labxchem/data/lb32627/lb32627-65/processing/analysis/mode
REMARK            -m \                                                          
REMARK            /dls/labxchem/data/lb32627/lb32627-65/processing/analysis/mode
REMARK            -l \                                                          
REMARK            /dls/labxchem/data/lb32627/lb32627-65/processing/analysis/mode
REMARK            -autoncs -M TLSbasic -B user -Gelly gelly.dat \               
REMARK            StopOnGellySanityCheckError=no -d Refine_4                    
REMARK Files used:                                                              
REMARK   PDB              = Refine_4/pdbchk.pdb                                 
REMARK   MTZ              = /dls/labxchem/data/lb32627/lb32627-65/processing/ana
REMARK   Gelly commands       = /dls/labxchem/data/lb32627/lb32627-65/processing
REMARK output written to subdirectory = Refine_4                                
REMARK best refinement for F,SIGF with R/Rfree 0.2350/0.2652                    
REMARK header records are copied from input PDB file (apart from REMARK 3!)     
REMARK --------------------- added by autoBUSTER -------------------------------
REMARK --------------------- added by autoBUSTER -------------------------------
REMARK run at   = Fri May 26 21:58:47 BST 2023                                  
REMARK     in   = /dls/labxchem/data/lb32627/lb32627-65/processing/analysis/mode
REMARK     user = xau79897                                                      
REMARK     cmd  = \                                                             
REMARK            /dls_sw/apps/GPhL/BUSTER/20230217/autoBUSTER/bin/linux64/refin
REMARK            -p \                                                          
REMARK            /dls/labxchem/data/lb32627/lb32627-65/processing/analysis/mode
REMARK            -m \                                                          
REMARK            /dls/labxchem/data/lb32627/lb32627-65/processing/analysis/mode
REMARK            -l \                                                          
REMARK            /dls/labxchem/data/lb32627/lb32627-65/processing/analysis/mode
REMARK            -autoncs -M TLSbasic -WAT -B user -Gelly gelly.dat \          
REMARK            StopOnGellySanityCheckError=no -d Refine_3                    
REMARK Files used:                                                              
REMARK   PDB              = Refine_3/pdbchk.pdb                                 
REMARK   MTZ              = /dls/labxchem/data/lb32627/lb32627-65/processing/ana
REMARK   Gelly commands       = /dls/labxchem/data/lb32627/lb32627-65/processing
REMARK output written to subdirectory = Refine_3                                
REMARK best refinement for F,SIGF with R/Rfree 0.2478/0.2786                    
REMARK header records are copied from input PDB file (apart from REMARK 3!)     
REMARK --------------------- added by autoBUSTER -------------------------------
REMARK --------------------- added by autoBUSTER -------------------------------
REMARK run at   = Fri May 26 13:43:06 BST 2023                                  
REMARK     in   = /dls/labxchem/data/lb32627/lb32627-65/processing/analysis/mode
REMARK     user = xau79897                                                      
REMARK     cmd  = \                                                             
REMARK            /dls_sw/apps/GPhL/BUSTER/20230217/autoBUSTER/bin/linux64/refin
REMARK            -p \                                                          
REMARK            /dls/labxchem/data/lb32627/lb32627-65/processing/analysis/mode
REMARK            -m \                                                          
REMARK            /dls/labxchem/data/lb32627/lb32627-65/processing/analysis/mode
REMARK            -l \                                                          
REMARK            /dls/labxchem/data/lb32627/lb32627-65/processing/analysis/mode
REMARK            -autoncs -M TLSbasic -WAT -B user -Gelly gelly.dat \          
REMARK            StopOnGellySanityCheckError=no -d Refine_2                    
REMARK Files used:                                                              
REMARK   PDB              = Refine_2/pdbchk.pdb                                 
REMARK   MTZ              = /dls/labxchem/data/lb32627/lb32627-65/processing/ana
REMARK   Gelly commands       = /dls/labxchem/data/lb32627/lb32627-65/processing
REMARK output written to subdirectory = Refine_2                                
REMARK best refinement for F,SIGF with R/Rfree 0.2374/0.2678                    
REMARK header records are copied from input PDB file (apart from REMARK 3!)     
REMARK --------------------- added by autoBUSTER -------------------------------
REMARK   2                                                            
REMARK   2 RESOLUTION.    1.57 ANGSTROMS.
REMARK   3
REMARK   3 REFINEMENT.
REMARK   3   PROGRAM     : BUSTER 2.10.4 (26-JUL-2023)
REMARK   3   AUTHORS     : BRICOGNE,BLANC,BRANDL,FLENSBURG,KELLER,
REMARK   3               : PACIOREK,ROVERSI,SHARFF,SMART,VONRHEIN,WOMACK;
REMARK   3               : MATTHEWS,TEN EYCK,TRONRUD
REMARK   3
REMARK   3  DATA USED IN REFINEMENT.
REMARK   3   RESOLUTION RANGE HIGH (ANGSTROMS) : 1.570
REMARK   3   RESOLUTION RANGE LOW  (ANGSTROMS) : 24.62
REMARK   3   DATA CUTOFF            (SIGMA(F)) : 0.000
REMARK   3   COMPLETENESS FOR RANGE        (%) : 86.4
REMARK   3   NUMBER OF REFLECTIONS             : 24878
REMARK   3
REMARK   3  FIT TO DATA USED IN REFINEMENT.
REMARK   3   CROSS-VALIDATION METHOD          : THROUGHOUT
REMARK   3   FREE R VALUE TEST SET SELECTION  : RANDOM
REMARK   3   R VALUE     (WORKING + TEST SET) : 0.2365
REMARK   3   R VALUE            (WORKING SET) : 0.2349
REMARK   3   FREE R VALUE                     : 0.2667
REMARK   3   FREE R VALUE TEST SET SIZE   (%) : 5.100
REMARK   3   FREE R VALUE TEST SET COUNT      : 1268
REMARK   3   ESTIMATED ERROR OF FREE R VALUE  : NULL
REMARK   3
REMARK   3  FIT IN THE HIGHEST RESOLUTION BIN.
REMARK   3   TOTAL NUMBER OF BINS USED           : 51
REMARK   3   BIN RESOLUTION RANGE HIGH       (A) : 1.57
REMARK   3   BIN RESOLUTION RANGE LOW        (A) : 1.66
REMARK   3   BIN COMPLETENESS (WORKING+TEST) (%) : 11.60
REMARK   3   REFLECTIONS IN BIN   (WORKING+TEST) : 498
REMARK   3   BIN R VALUE          (WORKING+TEST) : 0.5205
REMARK   3   REFLECTIONS IN BIN    (WORKING SET) : 478
REMARK   3   BIN R VALUE           (WORKING SET) : 0.5211
REMARK   3   BIN FREE R VALUE                    : 0.5057
REMARK   3   BIN FREE R VALUE TEST SET SIZE  (%) : 4.02
REMARK   3   BIN FREE R VALUE TEST SET COUNT     : 20
REMARK   3   ESTIMATED ERROR OF BIN FREE R VALUE : NULL
REMARK   3
REMARK   3  NUMBER OF NON-HYDROGEN ATOMS USED IN REFINEMENT.
REMARK   3   PROTEIN ATOMS            : 1476
REMARK   3   NUCLEIC ACID ATOMS       : 0
REMARK   3   HETEROGEN ATOMS          : 23
REMARK   3   SOLVENT ATOMS            : 106
REMARK   3
REMARK   3  B VALUES.
REMARK   3   FROM WILSON PLOT           (A**2) : 36.08
REMARK   3   MEAN B VALUE      (OVERALL, A**2) : 55.00
REMARK   3   OVERALL ANISOTROPIC B VALUE.
REMARK   3    B11 (A**2) : -2.66990
REMARK   3    B22 (A**2) : -2.66990
REMARK   3    B33 (A**2) : 5.33990
REMARK   3    B12 (A**2) : 0.00000
REMARK   3    B13 (A**2) : 0.00000
REMARK   3    B23 (A**2) : 0.00000
REMARK   3
REMARK   3  ESTIMATED COORDINATE ERROR.
REMARK   3   ESD FROM LUZZATI PLOT                    (A) : 0.32
REMARK   3   DPI (BLOW EQ-10) BASED ON R VALUE        (A) : 0.127
REMARK   3   DPI (BLOW EQ-9) BASED ON FREE R VALUE    (A) : 0.120
REMARK   3   DPI (CRUICKSHANK) BASED ON R VALUE       (A) : 0.120
REMARK   3   DPI (CRUICKSHANK) BASED ON FREE R VALUE  (A) : 0.116
REMARK   3
REMARK   3   REFERENCES: BLOW, D. (2002) ACTA CRYST D58, 792-797
REMARK   3               CRUICKSHANK, D.W.J. (1999) ACTA CRYST D55, 583-601
REMARK   3
REMARK   3  CORRELATION COEFFICIENTS.
REMARK   3   CORRELATION COEFFICIENT FO-FC      : 0.949
REMARK   3   CORRELATION COEFFICIENT FO-FC FREE : 0.947
REMARK   3
REMARK   3  X-RAY WEIGHT : 6.27
REMARK   3
REMARK   3  GEOMETRY FUNCTION.                                                  
REMARK   3   RESTRAINT LIBRARIES.                                               
REMARK   3    NUMBER OF LIBRARIES USED :   9                                    
REMARK   3    LIBRARY  1 : protgeo_eh99.dat (V1.6.4.20) 20220523  STANDARD      
REMARK   3                 AMINO ACID DICTIONARY. BONDS AND ANGLES FROM         
REMARK   3                 ENGH AND HUBER EH99. OTHER VALUES BASED ON           
REMARK   3                 PREVIOUS TNT OR TAKEN FROM CCP4. INCLUDES            
REMARK   3                 HYDROGEN ATOMS.                                      
REMARK   3    LIBRARY  2 : exoticaa.dat (V1.3.4.16) 20220523  COLLECTION        
REMARK   3                 OF NON-STANDARD AMINO ACIDS, MAINLY EH91             
REMARK   3                 WITHOUT IDEAL DISTANCE INFO                          
REMARK   3    LIBRARY  3 : nuclgeo.dat (V1.13.4.9) 20221011                     
REMARK   3    LIBRARY  4 : bcorrel.dat (V1.15.10.2) 20190616                    
REMARK   3    LIBRARY  5 : contact.dat (V1.15.12.10) 20191121                   
REMARK   3    LIBRARY  6 : idealdist_contact.dat (V1.3.4.14) 20230724           
REMARK   3                 IDEAL-DISTANCE CONTACT TERM DATA AS USED IN          
REMARK   3                 PROLSQ. VALUES USED HERE ARE BASEd ON DATA           
REMARK   3                 HARVESTING OF PDB AS OF 20190109                     
REMARK   3    LIBRARY  7 : restraints for LIG (unknown) from cif                
REMARK   3                 dictionary Z396117078.cif; generated by GRADE        
REMARK   3                 1.2.21 (Feb 03 2022) from SMILES                     
REMARK   3                 Cn1cc(NC(=O)c2ccccc2C(F)(F)F)cn1 using MOGUL         
REMARK   3                 1.8.5(274361), CSD as541be, with quantum             
REMARK   3                 mechanics RM1                                        
REMARK   3    LIBRARY  8 : restraints for DMS (DIMETHYL SULFOXIDE) from         
REMARK   3                 cif dictionary DMS.cif; generated by grade2          
REMARK   3                 version 1.1.0a7 from                                 
REMARK   3                 PDB_chemical_components_definition_file              
REMARK   3                 ftp://ftp.ebi.ac.uk/pub/databases/msd/pdbechem_v     
REMARK   3                 2/D/DMS/DMS.cif using RDKit 2021.03.4                
REMARK   3                 ((DatabaseID PDB-DMS))                               
REMARK   3    LIBRARY  9 : assume.dat (V1.9.4.3) 20221011                       
REMARK   3                                                                      
REMARK   3   NUMBER OF GEOMETRIC FUNCTION TERMS DEFINED : 15                    
REMARK   3   TERM                          COUNT    WEIGHT   FUNCTION.          
REMARK   3    BOND LENGTHS              :   1671 ;   2.00 ;  HARMONIC           
REMARK   3    BOND ANGLES               :   2298 ;   2.00 ;  HARMONIC           
REMARK   3    TORSION ANGLES            :    566 ;   2.00 ;  SINUSOIDAL         
REMARK   3    TRIGONAL CARBON PLANES    :   NULL ;   NULL ;  NULL               
REMARK   3    GENERAL PLANES            :    307 ;   5.00 ;  HARMONIC           
REMARK   3    ISOTROPIC THERMAL FACTORS :   1671 ;  10.00 ;  HARMONIC           
REMARK   3    BAD NON-BONDED CONTACTS   :   NULL ;   NULL ;  NULL               
REMARK   3    IMPROPER TORSIONS         :   NULL ;   NULL ;  NULL               
REMARK   3    PSEUDOROTATION ANGLES     :   NULL ;   NULL ;  NULL               
REMARK   3    CHIRAL IMPROPER TORSION   :    210 ;   5.00 ;  SEMIHARMONIC       
REMARK   3    SUM OF OCCUPANCIES        :   NULL ;   NULL ;  NULL               
REMARK   3    UTILITY DISTANCES         :   NULL ;   NULL ;  NULL               
REMARK   3    UTILITY ANGLES            :   NULL ;   NULL ;  NULL               
REMARK   3    UTILITY TORSION           :   NULL ;   NULL ;  NULL               
REMARK   3    IDEAL-DIST CONTACT TERM   :   1371 ;   4.00 ;  SEMIHARMONIC       
REMARK   3                                                                      
REMARK   3   RMS DEVIATIONS FROM IDEAL VALUES.                                  
REMARK   3   BOND LENGTHS                       (A) : 0.010                     
REMARK   3   BOND ANGLES                  (DEGREES) : 1.01                      
REMARK   3   PEPTIDE OMEGA TORSION ANGLES (DEGREES) : 3.55                      
REMARK   3   OTHER TORSION ANGLES         (DEGREES) : 17.18                     
REMARK   3                                                                      
REMARK   3   SIMILARITY.                                                        
REMARK   3    NCS.                                                              
REMARK   3     NCS METHOD: NONE                                                 
REMARK   3    TARGET RESTRAINTS.                                                
REMARK   3     TARGET REPRESENTATION : NONE                                     
REMARK   3     TARGET STRUCTURE : NULL                                          
REMARK   3                                                                      
REMARK   3  TLS DETAILS.                                                        
REMARK   3   NUMBER OF TLS GROUPS  :            2                               
REMARK   3                                                                      
REMARK   3   TLS GROUP :            1                                           
REMARK   3    SET : { A|* }                                                     
REMARK   3    ORIGIN FOR THE GROUP (A):  -13.8274   -2.3088  -19.6505           
REMARK   3    T TENSOR                                                          
REMARK   3     T11:    0.0604 T22:   -0.0105                                    
REMARK   3     T33:   -0.2113 T12:    0.2781                                    
REMARK   3     T13:    0.1458 T23:    0.1454                                    
REMARK   3    L TENSOR                                                          
REMARK   3     L11:    3.4187 L22:    3.6695                                    
REMARK   3     L33:    4.1763 L12:   -2.0001                                    
REMARK   3     L13:   -0.1587 L23:   -0.0478                                    
REMARK   3    S TENSOR                                                          
REMARK   3     S11:    0.6069 S12:    0.3441 S13:    0.3514                     
REMARK   3     S21:   -0.4753 S22:   -0.4816 S23:   -0.1714                     
REMARK   3     S31:    0.1095 S32:    0.4153 S33:   -0.1252                     
REMARK   3                                                                      
REMARK   3   TLS GROUP :            2                                           
REMARK   3    SET : { B|* }                                                     
REMARK   3    ORIGIN FOR THE GROUP (A):  -17.8379    0.2895  -15.5234           
REMARK   3    T TENSOR                                                          
REMARK   3     T11:    0.1609 T22:    0.0889                                    
REMARK   3     T33:   -0.0308 T12:    0.2358                                    
REMARK   3     T13:    0.1007 T23:    0.0615                                    
REMARK   3    L TENSOR                                                          
REMARK   3     L11:    1.2267 L22:    1.0766                                    
REMARK   3     L33:    1.8788 L12:   -0.9232                                    
REMARK   3     L13:    0.5001 L23:   -0.4476                                    
REMARK   3    S TENSOR                                                          
REMARK   3     S11:    0.4618 S12:    0.2164 S13:    0.2126                     
REMARK   3     S21:   -0.0862 S22:   -0.3638 S23:    0.0746                     
REMARK   3     S31:    0.1007 S32:    0.2027 S33:   -0.0979                     
REMARK   3                                                                      
REMARK   3  REFINEMENT NOTES.                                                   
REMARK   3   NUMBER OF REFINEMENT NOTES :   1                                   
REMARK   3   NOTE   1 : IDEAL-DIST CONTACT TERM CONTACT SETUP. ALL ATOMS        
REMARK   3               HAVE CCP4 ATOM TYPE FROM LIBRARY                       
REMARK   3
REMARK   3  OTHER REFINEMENT REMARKS: NULL
REMARK   3
REMARK 290                                                            
REMARK 290 CRYSTALLOGRAPHIC SYMMETRY                                  
REMARK 290 SYMMETRY OPERATORS FOR SPACE GROUP: P 43 2 2               
REMARK 290                                                            
REMARK 290      SYMOP   SYMMETRY                                      
REMARK 290     NNNMMM   OPERATOR                                      
REMARK 290       1555   X,Y,Z                                         
REMARK 290       2555   -X,-Y,1/2+Z                                   
REMARK 290       3555   -Y,X,3/4+Z                                    
REMARK 290       4555   Y,-X,1/4+Z                                    
REMARK 290       5555   -X,Y,-Z                                       
REMARK 290       6555   X,-Y,1/2-Z                                    
REMARK 290       7555   Y,X,1/4-Z                                     
REMARK 290       8555   -Y,-X,3/4-Z                                   
REMARK 290                                                            
REMARK 290     WHERE NNN -> OPERATOR NUMBER                           
REMARK 290           MMM -> TRANSLATION VECTOR                        
REMARK 290                                                            
REMARK 290 CRYSTALLOGRAPHIC SYMMETRY TRANSFORMATIONS                  
REMARK 290 THE FOLLOWING TRANSFORMATIONS OPERATE ON THE ATOM/HETATM   
REMARK 290 RECORDS IN THIS ENTRY TO PRODUCE CRYSTALLOGRAPHICALLY      
REMARK 290 RELATED MOLECULES.                                         
REMARK 290   SMTRY1   1  1.000000  0.000000  0.000000        0.00000
REMARK 290   SMTRY2   1  0.000000  1.000000  0.000000        0.00000
REMARK 290   SMTRY3   1  0.000000  0.000000  1.000000        0.00000
REMARK 290   SMTRY1   2 -1.000000  0.000000  0.000000        0.00000
REMARK 290   SMTRY2   2  0.000000 -1.000000  0.000000        0.00000
REMARK 290   SMTRY3   2  0.000000  0.000000  1.000000      107.87600
REMARK 290   SMTRY1   3  0.000000 -1.000000  0.000000        0.00000
REMARK 290   SMTRY2   3  1.000000  0.000000  0.000000        0.00000
REMARK 290   SMTRY3   3  0.000000  0.000000  1.000000      161.81400
REMARK 290   SMTRY1   4  0.000000  1.000000  0.000000        0.00000
REMARK 290   SMTRY2   4 -1.000000  0.000000  0.000000        0.00000
REMARK 290   SMTRY3   4  0.000000  0.000000  1.000000       53.93800
REMARK 290   SMTRY1   5 -1.000000  0.000000  0.000000        0.00000
REMARK 290   SMTRY2   5  0.000000  1.000000  0.000000        0.00000
REMARK 290   SMTRY3   5  0.000000  0.000000 -1.000000        0.00000
REMARK 290   SMTRY1   6  1.000000  0.000000  0.000000        0.00000
REMARK 290   SMTRY2   6  0.000000 -1.000000  0.000000        0.00000
REMARK 290   SMTRY3   6  0.000000  0.000000 -1.000000      107.87600
REMARK 290   SMTRY1   7  0.000000  1.000000  0.000000        0.00000
REMARK 290   SMTRY2   7  1.000000  0.000000  0.000000        0.00000
REMARK 290   SMTRY3   7  0.000000  0.000000 -1.000000       53.93800
REMARK 290   SMTRY1   8  0.000000 -1.000000  0.000000        0.00000
REMARK 290   SMTRY2   8 -1.000000  0.000000  0.000000        0.00000
REMARK 290   SMTRY3   8  0.000000  0.000000 -1.000000      161.81400
REMARK 290                                                            
REMARK 290 REMARK: NULL                                               
CRYST1   42.395   42.395  215.752  90.00  90.00  90.00 P 43 2 2                 


$$$$
Zx1098a_ligand
  PyMOL3.0          3D                             0

 19 20  0  0  0  0  0  0  0  0999 V2000
   -6.0520    5.2900  -16.9490 C   0  0  0  0  0  0  0  0  0  0  0  0
   -8.6790    4.1260  -13.8330 N   0  0  0  0  0  0  0  0  0  0  0  0
   -7.6670    6.0550  -14.5010 O   0  0  0  0  0  0  0  0  0  0  0  0
   -7.4460    4.7920  -17.2240 C   0  0  0  0  0  0  0  0  0  0  0  0
   -8.4710    5.8060  -10.6760 N   0  0  0  0  0  0  0  0  0  0  0  0
   -7.7940    4.5420  -18.5430 C   0  0  0  0  0  0  0  0  0  0  0  0
   -8.2820    4.5160  -10.3180 N   0  0  0  0  0  0  0  0  0  0  0  0
   -9.0580    4.0760  -18.8650 C   0  0  0  0  0  0  0  0  0  0  0  0
   -9.9790    3.8360  -17.8790 C   0  0  0  0  0  0  0  0  0  0  0  0
   -9.6540    4.0650  -16.5550 C   0  0  0  0  0  0  0  0  0  0  0  0
   -8.4010    4.5660  -16.2170 C   0  0  0  0  0  0  0  0  0  0  0  0
   -8.1950    4.9830  -14.7890 C   0  0  0  0  0  0  0  0  0  0  0  0
   -8.5800    4.4560  -12.4690 C   0  0  0  0  0  0  0  0  0  0  0  0
   -8.3640    3.6800  -11.3660 C   0  0  0  0  0  0  0  0  0  0  0  0
   -8.6480    5.7630  -11.9830 C   0  0  0  0  0  0  0  0  0  0  0  0
   -7.9190    4.1870   -8.9470 C   0  0  0  0  0  0  0  0  0  0  0  0
   -6.0080    6.6070  -16.7490 F   0  0  0  0  0  0  0  0  0  0  0  0
   -5.2070    5.0500  -17.9630 F   0  0  0  0  0  0  0  0  0  0  0  0
   -5.4980    4.7180  -15.8790 F   0  0  0  0  0  0  0  0  0  0  0  0
  1  4  1  0  0  0  0
  1 18  1  0  0  0  0
  1 19  1  0  0  0  0
  2 13  1  0  0  0  0
  4  6  4  0  0  0  0
  4 11  4  0  0  0  0
  5  7  4  0  0  0  0
  6  8  4  0  0  0  0
  7 16  1  0  0  0  0
  8  9  4  0  0  0  0
  9 10  4  0  0  0  0
 10 11  4  0  0  0  0
 11 12  1  0  0  0  0
  2 12  1  0  0  0  0
  3 12  2  0  0  0  0
 13 14  4  0  0  0  0
 13 15  4  0  0  0  0
  7 14  4  0  0  0  0
  5 15  4  0  0  0  0
  1 17  1  0  0  0  0
M  END
>  <pdb_header>
COMPND    XX01ZVNS2B-x1098_B_301_XX01ZVNS2B-x1291+B+301+1


$$$$
Zx1234a
  PyMOL3.0          3D                             0

 23 25  0  0  0  0  0  0  0  0999 V2000
   -4.4860    9.8420  -17.1760 C   0  0  0  0  0  0  0  0  0  0  0  0
   -3.8030    5.6360  -15.4640 N   0  0  0  0  0  0  0  0  0  0  0  0
   -3.7210    8.6630  -17.4060 O   0  0  0  0  0  0  0  0  0  0  0  0
   -4.2070    7.5010  -16.8950 C   0  0  0  0  0  0  0  0  0  0  0  0
   -8.5370    4.2000  -13.9060 N   0  0  0  0  0  0  0  0  0  0  0  0
   -7.7530    6.2910  -14.3190 O   0  0  0  0  0  0  0  0  0  0  0  0
   -3.4100    6.7900  -16.0160 C   0  0  0  0  0  0  0  0  0  0  0  0
   -8.7670    3.4870  -10.3730 N   0  0  0  0  0  0  0  0  0  0  0  0
   -4.9960    5.1570  -15.8300 C   0  0  0  0  0  0  0  0  0  0  0  0
   -8.5070    4.8330  -10.3930 N   0  0  0  0  0  0  0  0  0  0  0  0
   -5.8660    5.7820  -16.7150 C   0  0  0  0  0  0  0  0  0  0  0  0
   -7.1740    5.1790  -17.1150 C   0  0  0  0  0  0  0  0  0  0  0  0
   -7.3770    4.8360  -18.4530 C   0  0  0  0  0  0  0  0  0  0  0  0
   -8.5380    4.2180  -18.8740 C   0  0  0  0  0  0  0  0  0  0  0  0
   -9.5500    3.9710  -17.9780 C   0  0  0  0  0  0  0  0  0  0  0  0
   -9.3640    4.2640  -16.6440 C   0  0  0  0  0  0  0  0  0  0  0  0
   -8.2130    4.9210  -16.2040 C   0  0  0  0  0  0  0  0  0  0  0  0
   -8.1520    5.2140  -14.7330 C   0  0  0  0  0  0  0  0  0  0  0  0
   -8.5600    4.2230  -12.5010 C   0  0  0  0  0  0  0  0  0  0  0  0
   -8.7990    3.1350  -11.6500 C   0  0  0  0  0  0  0  0  0  0  0  0
   -8.3940    5.5740   -9.1400 C   0  0  0  0  0  0  0  0  0  0  0  0
   -8.3860    5.3110  -11.6540 C   0  0  0  0  0  0  0  0  0  0  0  0
   -5.4270    6.9830  -17.2740 C   0  0  0  0  0  0  0  0  0  0  0  0
  1  3  1  0  0  0  0
  2  9  4  0  0  0  0
  3  4  1  0  0  0  0
  4  7  4  0  0  0  0
  4 23  4  0  0  0  0
  5 19  1  0  0  0  0
  2  7  4  0  0  0  0
  8 10  4  0  0  0  0
  9 11  4  0  0  0  0
 10 21  1  0  0  0  0
 10 22  4  0  0  0  0
 11 12  1  0  0  0  0
 11 23  4  0  0  0  0
 12 13  4  0  0  0  0
 12 17  4  0  0  0  0
 13 14  4  0  0  0  0
 14 15  4  0  0  0  0
 15 16  4  0  0  0  0
 16 17  4  0  0  0  0
 17 18  1  0  0  0  0
  5 18  1  0  0  0  0
  6 18  2  0  0  0  0
 19 20  4  0  0  0  0
 19 22  4  0  0  0  0
  8 20  4  0  0  0  0
M  END
>  <pdb_header>
HEADER    ----                                    09-JAN-24                     
TITLE     ---                                                                   
EXPDTA    X-RAY DIFFRACTION                                                     
REMARK --------------------- added by autoBUSTER ---------------------------------START
REMARK run at   = Tue Jan 23 13:44:34 GMT 2024
REMARK     in   = /dls/labxchem/data/lb32627/lb32627-65/processing/analysis/model_building/XX01ZVNS2B-x1234
REMARK     user = kyf22269
REMARK     cmd  = \
REMARK            /dls_sw/apps/GPhL/BUSTER/20211020/autoBUSTER/bin/linux64/refine \
REMARK            -p \
REMARK            /dls/labxchem/data/lb32627/lb32627-65/processing/analysis/model_building/XX01ZVNS2B-x1234/cootOut/Refi
REMARK            -m \
REMARK            /dls/labxchem/data/lb32627/lb32627-65/processing/analysis/model_building/XX01ZVNS2B-x1234/XX01ZVNS2B-x
REMARK            -l \
REMARK            /dls/labxchem/data/lb32627/lb32627-65/processing/analysis/model_building/XX01ZVNS2B-x1234/ASAP-0014643
REMARK            -autoncs -M TLSbasic -d Refine_9
REMARK Files used:
REMARK   PDB              = Refine_9/pdbchk.pdb
REMARK   MTZ              = /dls/labxchem/data/lb32627/lb32627-65/processing/analysis/model_building/XX01ZVNS2B-x1234/XX
REMARK output written to subdirectory = Refine_9
REMARK best refinement for F,SIGF with R/Rfree 0.2540/0.2844
REMARK header records are copied from input PDB file (apart from REMARK 3!)
REMARK --------------------- added by autoBUSTER -----------------------------------END
REMARK --------------------- added by autoBUSTER -------------------------------
REMARK run at   = Tue Jan  9 17:16:03 GMT 2024                                  
REMARK     in   = /dls/labxchem/data/lb32627/lb32627-65/processing/analysis/mode
REMARK     user = xau79897                                                      
REMARK     cmd  = \                                                             
REMARK            /dls_sw/apps/GPhL/BUSTER/20230726/autoBUSTER/bin/linux64/refin
REMARK            -p \                                                          
REMARK            /dls/labxchem/data/lb32627/lb32627-65/processing/analysis/mode
REMARK            -m \                                                          
REMARK            /dls/labxchem/data/lb32627/lb32627-65/processing/analysis/mode
REMARK            -l \                                                          
REMARK            /dls/labxchem/data/lb32627/lb32627-65/processing/analysis/mode
REMARK            -autoncs -M TLSbasic -d Refine_8                              
REMARK Files used:                                                              
REMARK   PDB              = Refine_8/pdbchk.pdb                                 
REMARK   MTZ              = /dls/labxchem/data/lb32627/lb32627-65/processing/ana
REMARK output written to subdirectory = Refine_8                                
REMARK best refinement for F,SIGF with R/Rfree 0.2471/0.2801                    
REMARK header records are copied from input PDB file (apart from REMARK 3!)     
REMARK --------------------- added by autoBUSTER -------------------------------
REMARK   2                                                            
REMARK   2 RESOLUTION.    1.49 ANGSTROMS.
REMARK   3
REMARK   3 REFINEMENT.
REMARK   3   PROGRAM     : BUSTER 2.10.4 (20-OCT-2021)
REMARK   3   AUTHORS     : BRICOGNE,BLANC,BRANDL,FLENSBURG,KELLER,
REMARK   3               : PACIOREK,ROVERSI,SHARFF,SMART,VONRHEIN,WOMACK;
REMARK   3               : MATTHEWS,TEN EYCK,TRONRUD
REMARK   3
REMARK   3  DATA USED IN REFINEMENT.
REMARK   3   RESOLUTION RANGE HIGH (ANGSTROMS) : 1.492
REMARK   3   RESOLUTION RANGE LOW  (ANGSTROMS) : 23.08
REMARK   3   DATA CUTOFF            (SIGMA(F)) : 0.000
REMARK   3   COMPLETENESS FOR RANGE        (%) : 81.1
REMARK   3   NUMBER OF REFLECTIONS             : 27272
REMARK   3
REMARK   3  FIT TO DATA USED IN REFINEMENT.
REMARK   3   CROSS-VALIDATION METHOD          : THROUGHOUT
REMARK   3   FREE R VALUE TEST SET SELECTION  : RANDOM
REMARK   3   R VALUE     (WORKING + TEST SET) : 0.2555
REMARK   3   R VALUE            (WORKING SET) : 0.2540
REMARK   3   FREE R VALUE                     : 0.2844
REMARK   3   FREE R VALUE TEST SET SIZE   (%) : 5.080
REMARK   3   FREE R VALUE TEST SET COUNT      : 1385
REMARK   3   ESTIMATED ERROR OF FREE R VALUE  : NULL
REMARK   3
REMARK   3  FIT IN THE HIGHEST RESOLUTION BIN.
REMARK   3   TOTAL NUMBER OF BINS USED           : 51
REMARK   3   BIN RESOLUTION RANGE HIGH       (A) : 1.49
REMARK   3   BIN RESOLUTION RANGE LOW        (A) : 1.58
REMARK   3   BIN COMPLETENESS (WORKING+TEST) (%) : 10.20
REMARK   3   REFLECTIONS IN BIN   (WORKING+TEST) : 546
REMARK   3   BIN R VALUE          (WORKING+TEST) : 0.7381
REMARK   3   REFLECTIONS IN BIN    (WORKING SET) : 520
REMARK   3   BIN R VALUE           (WORKING SET) : 0.7386
REMARK   3   BIN FREE R VALUE                    : 0.7256
REMARK   3   BIN FREE R VALUE TEST SET SIZE  (%) : 4.76
REMARK   3   BIN FREE R VALUE TEST SET COUNT     : 26
REMARK   3   ESTIMATED ERROR OF BIN FREE R VALUE : NULL
REMARK   3
REMARK   3  NUMBER OF NON-HYDROGEN ATOMS USED IN REFINEMENT.
REMARK   3   PROTEIN ATOMS            : 1476
REMARK   3   NUCLEIC ACID ATOMS       : 0
REMARK   3   HETEROGEN ATOMS          : 32
REMARK   3   SOLVENT ATOMS            : 99
REMARK   3
REMARK   3  B VALUES.
REMARK   3   FROM WILSON PLOT           (A**2) : 29.10
REMARK   3   MEAN B VALUE      (OVERALL, A**2) : 53.77
REMARK   3   OVERALL ANISOTROPIC B VALUE.
REMARK   3    B11 (A**2) : -6.24280
REMARK   3    B22 (A**2) : -6.24280
REMARK   3    B33 (A**2) : 12.48560
REMARK   3    B12 (A**2) : 0.00000
REMARK   3    B13 (A**2) : 0.00000
REMARK   3    B23 (A**2) : 0.00000
REMARK   3
REMARK   3  ESTIMATED COORDINATE ERROR.
REMARK   3   ESD FROM LUZZATI PLOT                    (A) : 0.48
REMARK   3   DPI (BLOW EQ-10) BASED ON R VALUE        (A) : 0.129
REMARK   3   DPI (BLOW EQ-9) BASED ON FREE R VALUE    (A) : 0.121
REMARK   3   DPI (CRUICKSHANK) BASED ON R VALUE       (A) : 0.122
REMARK   3   DPI (CRUICKSHANK) BASED ON FREE R VALUE  (A) : 0.117
REMARK   3
REMARK   3   REFERENCES: BLOW, D. (2002) ACTA CRYST D58, 792-797
REMARK   3               CRUICKSHANK, D.W.J. (1999) ACTA CRYST D55, 583-601
REMARK   3
REMARK   3  CORRELATION COEFFICIENTS.
REMARK   3   CORRELATION COEFFICIENT FO-FC      : 0.935
REMARK   3   CORRELATION COEFFICIENT FO-FC FREE : 0.924
REMARK   3
REMARK   3  X-RAY WEIGHT : 5.15
REMARK   3
REMARK   3  GEOMETRY FUNCTION.                                                  
REMARK   3   RESTRAINT LIBRARIES.                                               
REMARK   3    NUMBER OF LIBRARIES USED :  10                                    
REMARK   3    LIBRARY  1 : protgeo_eh99.dat (V1.6.4.17) 20191001  STANDARD      
REMARK   3                 AMINO ACID DICTIONARY. BONDS AND ANGLES FROM         
REMARK   3                 ENGH AND HUBER EH99. OTHER VALUES BASED ON           
REMARK   3                 PREVIOUS TNT OR TAKEN FROM CCP4. INCLUDES            
REMARK   3                 HYDROGEN ATOMS.                                      
REMARK   3    LIBRARY  2 : exoticaa.dat (V1.3.4.15) 20200327  COLLECTION        
REMARK   3                 OF NON-STANDARD AMINO ACIDS, MAINLY EH91             
REMARK   3                 WITHOUT IDEAL DISTANCE INFO                          
REMARK   3    LIBRARY  3 : nuclgeo.dat (V1.13.4.8) 20190909                     
REMARK   3    LIBRARY  4 : bcorrel.dat (V1.15.10.2) 20190616                    
REMARK   3    LIBRARY  5 : contact.dat (V1.15.12.10) 20191121                   
REMARK   3    LIBRARY  6 : idealdist_contact.dat (V1.3.4.12) 20191001           
REMARK   3                 IDEAL-DISTANCE CONTACT TERM DATA AS USED IN          
REMARK   3                 PROLSQ. VALUES USED HERE ARE BASED ON DATA           
REMARK   3                 HARVESTING OF PDB AS OF 20190109.                    
REMARK   3    LIBRARY  7 : restraints for LIG from cif dictionary               
REMARK   3                 ASAP-0014643-001.cif                                 
REMARK   3    LIBRARY  8 : restraints for DMS (DIMETHYL SULFOXIDE) from         
REMARK   3                 cif dictionary DMS.cif; buster common-compounds      
REMARK   3                 v 2.0 (19 Dec 2011)                                  
REMARK   3    LIBRARY  9 : restraints for SO4 (SULFATE ION) from cif            
REMARK   3                 dictionary SO4.cif; buster common-compounds v        
REMARK   3                 2.0 (19 Dec 2011)                                    
REMARK   3    LIBRARY 10 : assume.dat (V1.9.4.2) 20180705                       
REMARK   3                                                                      
REMARK   3   NUMBER OF GEOMETRIC FUNCTION TERMS DEFINED : 15                    
REMARK   3   TERM                          COUNT    WEIGHT   FUNCTION.          
REMARK   3    BOND LENGTHS              :   1731 ;   2.00 ;  HARMONIC           
REMARK   3    BOND ANGLES               :   2370 ;   2.00 ;  HARMONIC           
REMARK   3    TORSION ANGLES            :    605 ;   2.00 ;  SINUSOIDAL         
REMARK   3    TRIGONAL CARBON PLANES    :   NULL ;   NULL ;  NULL               
REMARK   3    GENERAL PLANES            :    306 ;   5.00 ;  HARMONIC           
REMARK   3    ISOTROPIC THERMAL FACTORS :   1731 ;  10.00 ;  HARMONIC           
REMARK   3    BAD NON-BONDED CONTACTS   :   NULL ;   NULL ;  NULL               
REMARK   3    IMPROPER TORSIONS         :   NULL ;   NULL ;  NULL               
REMARK   3    PSEUDOROTATION ANGLES     :   NULL ;   NULL ;  NULL               
REMARK   3    CHIRAL IMPROPER TORSION   :    215 ;   5.00 ;  SEMIHARMONIC       
REMARK   3    SUM OF OCCUPANCIES        :   NULL ;   NULL ;  NULL               
REMARK   3    UTILITY DISTANCES         :   NULL ;   NULL ;  NULL               
REMARK   3    UTILITY ANGLES            :   NULL ;   NULL ;  NULL               
REMARK   3    UTILITY TORSION           :   NULL ;   NULL ;  NULL               
REMARK   3    IDEAL-DIST CONTACT TERM   :   1402 ;   4.00 ;  SEMIHARMONIC       
REMARK   3                                                                      
REMARK   3   RMS DEVIATIONS FROM IDEAL VALUES.                                  
REMARK   3   BOND LENGTHS                       (A) : 0.008                     
REMARK   3   BOND ANGLES                  (DEGREES) : 0.97                      
REMARK   3   PEPTIDE OMEGA TORSION ANGLES (DEGREES) : 3.30                      
REMARK   3   OTHER TORSION ANGLES         (DEGREES) : 17.11                     
REMARK   3                                                                      
REMARK   3   SIMILARITY.                                                        
REMARK   3    NCS.                                                              
REMARK   3     NCS METHOD: NONE                                                 
REMARK   3    TARGET RESTRAINTS.                                                
REMARK   3     TARGET REPRESENTATION : NONE                                     
REMARK   3     TARGET STRUCTURE : NULL                                          
REMARK   3                                                                      
REMARK   3  TLS DETAILS.                                                        
REMARK   3   NUMBER OF TLS GROUPS  :            2                               
REMARK   3                                                                      
REMARK   3   TLS GROUP :            1                                           
REMARK   3    SET : { A|* }                                                     
REMARK   3    ORIGIN FOR THE GROUP (A):  -15.0928   -1.6690  -20.8834           
REMARK   3    T TENSOR                                                          
REMARK   3     T11:    0.0520 T22:   -0.0307                                    
REMARK   3     T33:   -0.1907 T12:    0.2190                                    
REMARK   3     T13:    0.1188 T23:    0.1007                                    
REMARK   3    L TENSOR                                                          
REMARK   3     L11:    3.1490 L22:    3.2924                                    
REMARK   3     L33:    4.2056 L12:   -1.7271                                    
REMARK   3     L13:    0.2072 L23:    0.9452                                    
REMARK   3    S TENSOR                                                          
REMARK   3     S11:    0.5673 S12:    0.5641 S13:    0.3012                     
REMARK   3     S21:   -0.5666 S22:   -0.5212 S23:   -0.2506                     
REMARK   3     S31:   -0.0572 S32:    0.4066 S33:   -0.0460                     
REMARK   3                                                                      
REMARK   3   TLS GROUP :            2                                           
REMARK   3    SET : { B|* }                                                     
REMARK   3    ORIGIN FOR THE GROUP (A):  -18.0418    0.7796  -15.4520           
REMARK   3    T TENSOR                                                          
REMARK   3     T11:    0.1104 T22:    0.0325                                    
REMARK   3     T33:   -0.0335 T12:    0.1827                                    
REMARK   3     T13:    0.0474 T23:    0.0377                                    
REMARK   3    L TENSOR                                                          
REMARK   3     L11:    1.0843 L22:    0.9502                                    
REMARK   3     L33:    2.0325 L12:   -0.8472                                    
REMARK   3     L13:    0.8344 L23:   -0.2537                                    
REMARK   3    S TENSOR                                                          
REMARK   3     S11:    0.3524 S12:    0.2122 S13:    0.1659                     
REMARK   3     S21:   -0.1789 S22:   -0.3488 S23:    0.0559                     
REMARK   3     S31:    0.1346 S32:    0.2351 S33:   -0.0037                     
REMARK   3                                                                      
REMARK   3  REFINEMENT NOTES.                                                   
REMARK   3   NUMBER OF REFINEMENT NOTES :   1                                   
REMARK   3   NOTE   1 : IDEAL-DIST CONTACT TERM CONTACT SETUP. ALL ATOMS        
REMARK   3               HAVE CCP4 ATOM TYPE FROM LIBRARY                       
REMARK   3
REMARK   3  OTHER REFINEMENT REMARKS: NULL
REMARK   3
REMARK 290                                                            
REMARK 290 CRYSTALLOGRAPHIC SYMMETRY                                  
REMARK 290 SYMMETRY OPERATORS FOR SPACE GROUP: P 43 2 2               
REMARK 290                                                            
REMARK 290      SYMOP   SYMMETRY                                      
REMARK 290     NNNMMM   OPERATOR                                      
REMARK 290       1555   X,Y,Z                                         
REMARK 290       2555   -X,-Y,1/2+Z                                   
REMARK 290       3555   -Y,X,3/4+Z                                    
REMARK 290       4555   Y,-X,1/4+Z                                    
REMARK 290       5555   -X,Y,-Z                                       
REMARK 290       6555   X,-Y,1/2-Z                                    
REMARK 290       7555   Y,X,1/4-Z                                     
REMARK 290       8555   -Y,-X,3/4-Z                                   
REMARK 290                                                            
REMARK 290     WHERE NNN -> OPERATOR NUMBER                           
REMARK 290           MMM -> TRANSLATION VECTOR                        
REMARK 290                                                            
REMARK 290 CRYSTALLOGRAPHIC SYMMETRY TRANSFORMATIONS                  
REMARK 290 THE FOLLOWING TRANSFORMATIONS OPERATE ON THE ATOM/HETATM   
REMARK 290 RECORDS IN THIS ENTRY TO PRODUCE CRYSTALLOGRAPHICALLY      
REMARK 290 RELATED MOLECULES.                                         
REMARK 290   SMTRY1   1  1.000000  0.000000  0.000000        0.00000
REMARK 290   SMTRY2   1  0.000000  1.000000  0.000000        0.00000
REMARK 290   SMTRY3   1  0.000000  0.000000  1.000000        0.00000
REMARK 290   SMTRY1   2 -1.000000  0.000000  0.000000        0.00000
REMARK 290   SMTRY2   2  0.000000 -1.000000  0.000000        0.00000
REMARK 290   SMTRY3   2  0.000000  0.000000  1.000000      108.24700
REMARK 290   SMTRY1   3  0.000000 -1.000000  0.000000        0.00000
REMARK 290   SMTRY2   3  1.000000  0.000000  0.000000        0.00000
REMARK 290   SMTRY3   3  0.000000  0.000000  1.000000      162.37050
REMARK 290   SMTRY1   4  0.000000  1.000000  0.000000        0.00000
REMARK 290   SMTRY2   4 -1.000000  0.000000  0.000000        0.00000
REMARK 290   SMTRY3   4  0.000000  0.000000  1.000000       54.12350
REMARK 290   SMTRY1   5 -1.000000  0.000000  0.000000        0.00000
REMARK 290   SMTRY2   5  0.000000  1.000000  0.000000        0.00000
REMARK 290   SMTRY3   5  0.000000  0.000000 -1.000000        0.00000
REMARK 290   SMTRY1   6  1.000000  0.000000  0.000000        0.00000
REMARK 290   SMTRY2   6  0.000000 -1.000000  0.000000        0.00000
REMARK 290   SMTRY3   6  0.000000  0.000000 -1.000000      108.24700
REMARK 290   SMTRY1   7  0.000000  1.000000  0.000000        0.00000
REMARK 290   SMTRY2   7  1.000000  0.000000  0.000000        0.00000
REMARK 290   SMTRY3   7  0.000000  0.000000 -1.000000       54.12350
REMARK 290   SMTRY1   8  0.000000 -1.000000  0.000000        0.00000
REMARK 290   SMTRY2   8 -1.000000  0.000000  0.000000        0.00000
REMARK 290   SMTRY3   8  0.000000  0.000000 -1.000000      162.37050
REMARK 290                                                            
REMARK 290 REMARK: NULL                                               
CRYST1   42.454   42.454  216.494  90.00  90.00  90.00 P 43 2 2                 


$$$$
Zx1234a_ligand
  PyMOL3.0          3D                             0

 23 25  0  0  0  0  0  0  0  0999 V2000
   -4.4860    9.8420  -17.1760 C   0  0  0  0  0  0  0  0  0  0  0  0
   -3.8030    5.6360  -15.4640 N   0  0  0  0  0  0  0  0  0  0  0  0
   -3.7210    8.6630  -17.4060 O   0  0  0  0  0  0  0  0  0  0  0  0
   -4.2070    7.5010  -16.8950 C   0  0  0  0  0  0  0  0  0  0  0  0
   -8.5370    4.2000  -13.9060 N   0  0  0  0  0  0  0  0  0  0  0  0
   -7.7530    6.2910  -14.3190 O   0  0  0  0  0  0  0  0  0  0  0  0
   -3.4100    6.7900  -16.0160 C   0  0  0  0  0  0  0  0  0  0  0  0
   -8.7670    3.4870  -10.3730 N   0  0  0  0  0  0  0  0  0  0  0  0
   -4.9960    5.1570  -15.8300 C   0  0  0  0  0  0  0  0  0  0  0  0
   -8.5070    4.8330  -10.3930 N   0  0  0  0  0  0  0  0  0  0  0  0
   -5.8660    5.7820  -16.7150 C   0  0  0  0  0  0  0  0  0  0  0  0
   -7.1740    5.1790  -17.1150 C   0  0  0  0  0  0  0  0  0  0  0  0
   -7.3770    4.8360  -18.4530 C   0  0  0  0  0  0  0  0  0  0  0  0
   -8.5380    4.2180  -18.8740 C   0  0  0  0  0  0  0  0  0  0  0  0
   -9.5500    3.9710  -17.9780 C   0  0  0  0  0  0  0  0  0  0  0  0
   -9.3640    4.2640  -16.6440 C   0  0  0  0  0  0  0  0  0  0  0  0
   -8.2130    4.9210  -16.2040 C   0  0  0  0  0  0  0  0  0  0  0  0
   -8.1520    5.2140  -14.7330 C   0  0  0  0  0  0  0  0  0  0  0  0
   -8.5600    4.2230  -12.5010 C   0  0  0  0  0  0  0  0  0  0  0  0
   -8.7990    3.1350  -11.6500 C   0  0  0  0  0  0  0  0  0  0  0  0
   -8.3940    5.5740   -9.1400 C   0  0  0  0  0  0  0  0  0  0  0  0
   -8.3860    5.3110  -11.6540 C   0  0  0  0  0  0  0  0  0  0  0  0
   -5.4270    6.9830  -17.2740 C   0  0  0  0  0  0  0  0  0  0  0  0
  1  3  1  0  0  0  0
  2  9  4  0  0  0  0
  3  4  1  0  0  0  0
  4  7  4  0  0  0  0
  4 23  4  0  0  0  0
  5 19  1  0  0  0  0
  2  7  4  0  0  0  0
  8 10  4  0  0  0  0
  9 11  4  0  0  0  0
 10 21  1  0  0  0  0
 10 22  4  0  0  0  0
 11 12  1  0  0  0  0
 11 23  4  0  0  0  0
 12 13  4  0  0  0  0
 12 17  4  0  0  0  0
 13 14  4  0  0  0  0
 14 15  4  0  0  0  0
 15 16  4  0  0  0  0
 16 17  4  0  0  0  0
 17 18  1  0  0  0  0
  5 18  1  0  0  0  0
  6 18  2  0  0  0  0
 19 20  4  0  0  0  0
 19 22  4  0  0  0  0
  8 20  4  0  0  0  0
M  END
>  <pdb_header>
COMPND    XX01ZVNS2B-x1234_B_301_XX01ZVNS2B-x1291+B+301+1


$$$$
Zx1237a
  PyMOL3.0          3D                             0

 20 22  0  0  0  0  0  0  0  0999 V2000
   -8.6060    6.7390  -11.5270 C   0  0  0  0  0  0  0  0  0  0  0  0
   -8.6380    3.9510   -9.0000 N   0  0  0  0  0  0  0  0  0  0  0  0
   -6.5000    5.5520  -13.3640 O   0  0  0  0  0  0  0  0  0  0  0  0
   -8.5800    5.3450  -10.9540 C   0  0  0  0  0  0  0  0  0  0  0  0
   -8.4030    4.3250  -13.1720 N   0  0  0  0  0  0  0  0  0  0  0  0
   -8.6540    5.1620   -9.5820 C   0  0  0  0  0  0  0  0  0  0  0  0
   -6.9930    4.7880  -17.5510 N   0  0  0  0  0  0  0  0  0  0  0  0
   -8.5390    2.8860   -9.8000 C   0  0  0  0  0  0  0  0  0  0  0  0
   -8.4640    2.9600  -11.1650 C   0  0  0  0  0  0  0  0  0  0  0  0
   -8.4810    4.2090  -11.7640 C   0  0  0  0  0  0  0  0  0  0  0  0
   -7.4100    4.9190  -13.8870 C   0  0  0  0  0  0  0  0  0  0  0  0
   -7.5120    4.7840  -15.3470 C   0  0  0  0  0  0  0  0  0  0  0  0
   -8.6520    4.4280  -16.0970 C   0  0  0  0  0  0  0  0  0  0  0  0
   -8.3210    4.4350  -17.4300 C   0  0  0  0  0  0  0  0  0  0  0  0
   -9.1040    4.1360  -18.6290 C   0  0  0  0  0  0  0  0  0  0  0  0
  -10.5860    3.9490  -18.5340 C   0  0  0  0  0  0  0  0  0  0  0  0
   -9.7160    2.7800  -18.7770 C   0  0  0  0  0  0  0  0  0  0  0  0
   -6.2500    4.9090  -18.8060 C   0  0  0  0  0  0  0  0  0  0  0  0
   -6.4800    5.0100  -16.2490 C   0  0  0  0  0  0  0  0  0  0  0  0
   -5.0610    5.4060  -16.0360 C   0  0  0  0  0  0  0  0  0  0  0  0
  1  4  1  0  0  0  0
  4  6  4  0  0  0  0
  4 10  4  0  0  0  0
  2  6  4  0  0  0  0
  2  8  4  0  0  0  0
  8  9  4  0  0  0  0
  9 10  4  0  0  0  0
  5 10  1  0  0  0  0
  3 11  2  0  0  0  0
  5 11  1  0  0  0  0
 11 12  1  0  0  0  0
 12 13  4  0  0  0  0
  7 14  4  0  0  0  0
 13 14  4  0  0  0  0
 14 15  1  0  0  0  0
 15 16  1  0  0  0  0
 15 17  1  0  0  0  0
 16 17  1  0  0  0  0
  7 18  1  0  0  0  0
  7 19  4  0  0  0  0
 12 19  4  0  0  0  0
 19 20  1  0  0  0  0
M  END
>  <pdb_header>
HEADER    ----                                    08-DEC-23   XXXX              
TITLE     ---                                                                   
REMARK   3
REMARK   3 REFINEMENT.
REMARK   3   PROGRAM     : REFMAC 5.8.0267   
REMARK   3   AUTHORS     : MURSHUDOV,SKUBAK,LEBEDEV,PANNU,
REMARK   3                 STEINER,NICHOLLS,WINN,LONG,VAGIN
REMARK   3
REMARK   3    REFINEMENT TARGET : MAXIMUM LIKELIHOOD
REMARK   3
REMARK   3  DATA USED IN REFINEMENT.
REMARK   3   RESOLUTION RANGE HIGH (ANGSTROMS) :   1.50
REMARK   3   RESOLUTION RANGE LOW  (ANGSTROMS) :  54.11
REMARK   3   DATA CUTOFF            (SIGMA(F)) : NONE
REMARK   3   COMPLETENESS FOR RANGE        (%) :  92.24
REMARK   3   NUMBER OF REFLECTIONS             :   29004
REMARK   3
REMARK   3  FIT TO DATA USED IN REFINEMENT.
REMARK   3   CROSS-VALIDATION METHOD          : THROUGHOUT
REMARK   3   FREE R VALUE TEST SET SELECTION  : RANDOM
REMARK   3   R VALUE     (WORKING + TEST SET) : 0.25882
REMARK   3   R VALUE            (WORKING SET) :  0.25769
REMARK   3   FREE R VALUE                     :  0.28020
REMARK   3   FREE R VALUE TEST SET SIZE   (%) :  5.1
REMARK   3   FREE R VALUE TEST SET COUNT      :  1549
REMARK   3
REMARK   3  FIT IN THE HIGHEST RESOLUTION BIN.
REMARK   3   TOTAL NUMBER OF BINS USED           :      20
REMARK   3   BIN RESOLUTION RANGE HIGH           :    1.500
REMARK   3   BIN RESOLUTION RANGE LOW            :    1.539
REMARK   3   REFLECTION IN BIN     (WORKING SET) :      326
REMARK   3   BIN COMPLETENESS (WORKING+TEST) (%) :    14.38
REMARK   3   BIN R VALUE           (WORKING SET) :    0.523
REMARK   3   BIN FREE R VALUE SET COUNT          :       17
REMARK   3   BIN FREE R VALUE                    :    0.409
REMARK   3
REMARK   3  NUMBER OF NON-HYDROGEN ATOMS USED IN REFINEMENT.
REMARK   3   ALL ATOMS                :     2923
REMARK   3
REMARK   3  B VALUES.
REMARK   3   FROM WILSON PLOT           (A**2) : NULL
REMARK   3   MEAN B VALUE      (OVERALL, A**2) :  41.856
REMARK   3   OVERALL ANISOTROPIC B VALUE.
REMARK   3    B11 (A**2) :    -0.41
REMARK   3    B22 (A**2) :    -0.41
REMARK   3    B33 (A**2) :     0.81
REMARK   3    B12 (A**2) :     0.00
REMARK   3    B13 (A**2) :     0.00
REMARK   3    B23 (A**2) :     0.00
REMARK   3
REMARK   3  ESTIMATED OVERALL COORDINATE ERROR.
REMARK   3   ESU BASED ON R VALUE                            (A):   0.166
REMARK   3   ESU BASED ON FREE R VALUE                       (A):   0.139
REMARK   3   ESU BASED ON MAXIMUM LIKELIHOOD                 (A):   0.271
REMARK   3   ESU FOR B VALUES BASED ON MAXIMUM LIKELIHOOD (A**2):  17.435
REMARK   3
REMARK   3 CORRELATION COEFFICIENTS.
REMARK   3   CORRELATION COEFFICIENT FO-FC      :   0.951
REMARK   3   CORRELATION COEFFICIENT FO-FC FREE :   0.943
REMARK   3
REMARK   3  RMS DEVIATIONS FROM IDEAL VALUES        COUNT    RMS    WEIGHT
REMARK   3   BOND LENGTHS REFINED ATOMS        (A):  4256 ; 0.025 ; 0.015
REMARK   3   BOND LENGTHS OTHERS               (A):  2568 ; 0.016 ; 0.015
REMARK   3   BOND ANGLES REFINED ATOMS   (DEGREES):  4042 ; 2.189 ; 1.640
REMARK   3   BOND ANGLES OTHERS          (DEGREES):  5973 ; 1.528 ; 1.580
REMARK   3   TORSION ANGLES, PERIOD 1    (DEGREES):   413 ; 8.399 ; 5.000
REMARK   3   TORSION ANGLES, PERIOD 2    (DEGREES):   122 ;28.855 ;23.689
REMARK   3   TORSION ANGLES, PERIOD 3    (DEGREES):   399 ;15.399 ;15.000
REMARK   3   TORSION ANGLES, PERIOD 4    (DEGREES):    10 ;19.689 ;15.000
REMARK   3   CHIRAL-CENTER RESTRAINTS       (A**3):   352 ; 0.092 ; 0.200
REMARK   3   GENERAL PLANES REFINED ATOMS      (A):  3636 ; 0.015 ; 0.020
REMARK   3   GENERAL PLANES OTHERS             (A):   659 ; 0.008 ; 0.020
REMARK   3
REMARK   3  ISOTROPIC THERMAL FACTOR RESTRAINTS.     COUNT   RMS    WEIGHT
REMARK   3   MAIN-CHAIN BOND REFINED ATOMS  (A**2):  2175 ; 0.668 ; 1.293
REMARK   3   MAIN-CHAIN BOND OTHER ATOMS    (A**2):  2105 ; 0.675 ; 1.167
REMARK   3   MAIN-CHAIN ANGLE REFINED ATOMS (A**2):  1941 ; 1.467 ; 1.822
REMARK   3   MAIN-CHAIN ANGLE OTHER ATOMS (A**2)  :  1942 ; 1.468 ; 1.824
REMARK   3   SIDE-CHAIN BOND REFINED ATOMS  (A**2):  2081 ; 0.691 ; 1.541
REMARK   3   SIDE-CHAIN BOND OTHER ATOMS  (A**2)  :  2082 ; 0.691 ; 1.543
REMARK   3   SIDE-CHAIN ANGLE OTHER ATOMS (A**2)  :  2093 ; 1.404 ; 2.176
REMARK   3   LONG RANGE B REFINED ATOMS (A**2)    :  3297 ; 8.467 ;15.539
REMARK   3   LONG RANGE B OTHER ATOMS (A**2)      :  3272 ; 8.451 ;15.126
REMARK   3
REMARK   3  NCS RESTRAINTS STATISTICS
REMARK   3   NUMBER OF NCS GROUPS : NULL
REMARK   3
REMARK   3  TWIN DETAILS
REMARK   3   NUMBER OF TWIN DOMAINS  : NULL
REMARK   3
REMARK   3
REMARK   3  TLS DETAILS
REMARK   3   NUMBER OF TLS GROUPS  :    2
REMARK   3   ATOM RECORD CONTAINS SUM OF TLS AND RESIDUAL B FACTORS
REMARK   3
REMARK   3   TLS GROUP :     1
REMARK   3    NUMBER OF COMPONENTS GROUP :    1
REMARK   3    COMPONENTS        C SSSEQI   TO  C SSSEQI
REMARK   3    RESIDUE RANGE :   A    50        A    88
REMARK   3    ORIGIN FOR THE GROUP (A): -13.2063  -1.7650 -19.0848
REMARK   3    T TENSOR
REMARK   3      T11:   0.4846 T22:   0.3936
REMARK   3      T33:   0.1782 T12:   0.2917
REMARK   3      T13:   0.1566 T23:   0.1045
REMARK   3    L TENSOR
REMARK   3      L11:   1.9302 L22:   1.7283
REMARK   3      L33:   1.3450 L12:  -0.6934
REMARK   3      L13:  -0.5182 L23:   0.3366
REMARK   3    S TENSOR
REMARK   3      S11:   0.5922 S12:   0.2626 S13:   0.5395
REMARK   3      S21:  -0.3776 S22:  -0.4366 S23:  -0.3803
REMARK   3      S31:   0.0519 S32:   0.2771 S33:  -0.1556
REMARK   3
REMARK   3   TLS GROUP :     2
REMARK   3    NUMBER OF COMPONENTS GROUP :    1
REMARK   3    COMPONENTS        C SSSEQI   TO  C SSSEQI
REMARK   3    RESIDUE RANGE :   B    16        B   305
REMARK   3    ORIGIN FOR THE GROUP (A): -18.7996   1.1072 -15.6606
REMARK   3    T TENSOR
REMARK   3      T11:   0.3949 T22:   0.4053
REMARK   3      T33:   0.1494 T12:   0.1322
REMARK   3      T13:   0.0553 T23:  -0.0232
REMARK   3    L TENSOR
REMARK   3      L11:   0.9013 L22:   0.4966
REMARK   3      L33:   1.0387 L12:  -0.6047
REMARK   3      L13:   0.2400 L23:  -0.0473
REMARK   3    S TENSOR
REMARK   3      S11:   0.2944 S12:   0.2139 S13:   0.1084
REMARK   3      S21:  -0.1602 S22:  -0.2686 S23:   0.0004
REMARK   3      S31:   0.1615 S32:   0.1010 S33:  -0.0258
REMARK   3
REMARK   3
REMARK   3  BULK SOLVENT MODELLING.
REMARK   3   METHOD USED :  MASK
REMARK   3   PARAMETERS FOR MASK CALCULATION
REMARK   3   VDW PROBE RADIUS   :   1.20
REMARK   3   ION PROBE RADIUS   :   0.80
REMARK   3   SHRINKAGE RADIUS   :   0.80
REMARK   3
REMARK   3  OTHER REFINEMENT REMARKS:
REMARK   3  HYDROGENS HAVE BEEN ADDED IN THE RIDING POSITIONS
REMARK   3  U VALUES      : WITH TLS ADDED
REMARK   3
CRYST1   42.469   42.469  216.433  90.00  90.00  90.00 P 43 2 2                 


$$$$
Zx1237a_ligand
  PyMOL3.0          3D                             0

 20 22  0  0  0  0  0  0  0  0999 V2000
   -8.6060    6.7390  -11.5270 C   0  0  0  0  0  0  0  0  0  0  0  0
   -8.6380    3.9510   -9.0000 N   0  0  0  0  0  0  0  0  0  0  0  0
   -6.5000    5.5520  -13.3640 O   0  0  0  0  0  0  0  0  0  0  0  0
   -8.5800    5.3450  -10.9540 C   0  0  0  0  0  0  0  0  0  0  0  0
   -8.4030    4.3250  -13.1720 N   0  0  0  0  0  0  0  0  0  0  0  0
   -8.6540    5.1620   -9.5820 C   0  0  0  0  0  0  0  0  0  0  0  0
   -6.9930    4.7880  -17.5510 N   0  0  0  0  0  0  0  0  0  0  0  0
   -8.5390    2.8860   -9.8000 C   0  0  0  0  0  0  0  0  0  0  0  0
   -8.4640    2.9600  -11.1650 C   0  0  0  0  0  0  0  0  0  0  0  0
   -8.4810    4.2090  -11.7640 C   0  0  0  0  0  0  0  0  0  0  0  0
   -7.4100    4.9190  -13.8870 C   0  0  0  0  0  0  0  0  0  0  0  0
   -7.5120    4.7840  -15.3470 C   0  0  0  0  0  0  0  0  0  0  0  0
   -8.6520    4.4280  -16.0970 C   0  0  0  0  0  0  0  0  0  0  0  0
   -8.3210    4.4350  -17.4300 C   0  0  0  0  0  0  0  0  0  0  0  0
   -9.1040    4.1360  -18.6290 C   0  0  0  0  0  0  0  0  0  0  0  0
  -10.5860    3.9490  -18.5340 C   0  0  0  0  0  0  0  0  0  0  0  0
   -9.7160    2.7800  -18.7770 C   0  0  0  0  0  0  0  0  0  0  0  0
   -6.2500    4.9090  -18.8060 C   0  0  0  0  0  0  0  0  0  0  0  0
   -6.4800    5.0100  -16.2490 C   0  0  0  0  0  0  0  0  0  0  0  0
   -5.0610    5.4060  -16.0360 C   0  0  0  0  0  0  0  0  0  0  0  0
  1  4  1  0  0  0  0
  2  8  4  0  0  0  0
  4  6  4  0  0  0  0
  4 10  4  0  0  0  0
  5 11  1  0  0  0  0
  2  6  4  0  0  0  0
  7 18  1  0  0  0  0
  7 19  4  0  0  0  0
  8  9  4  0  0  0  0
  9 10  4  0  0  0  0
  5 10  1  0  0  0  0
  3 11  2  0  0  0  0
 11 12  1  0  0  0  0
 12 13  4  0  0  0  0
 12 19  4  0  0  0  0
 13 14  4  0  0  0  0
  7 14  4  0  0  0  0
 14 15  1  0  0  0  0
 15 16  1  0  0  0  0
 15 17  1  0  0  0  0
 16 17  1  0  0  0  0
 19 20  1  0  0  0  0
M  END
>  <pdb_header>
COMPND    XX01ZVNS2B-x1237_B_301_XX01ZVNS2B-x1291+B+301+1


$$$$
Zx1261a
  PyMOL3.0          3D                             0

 24 26  0  0  0  0  0  0  0  0999 V2000
   -4.8940   10.1660  -16.0470 C   0  0  0  0  0  0  0  0  0  0  0  0
   -8.5830    4.2420  -13.7570 N   0  0  0  0  0  0  0  0  0  0  0  0
   -4.9310    9.7350  -17.4050 O   0  0  0  0  0  0  0  0  0  0  0  0
   -3.9910    8.7100  -17.6940 C   0  0  0  0  0  0  0  0  0  0  0  0
   -8.2920    5.8440  -10.5380 N   0  0  0  0  0  0  0  0  0  0  0  0
   -7.7250    6.2310  -14.4080 O   0  0  0  0  0  0  0  0  0  0  0  0
   -4.4440    7.3740  -17.1580 C   0  0  0  0  0  0  0  0  0  0  0  0
   -8.5500    4.5520  -10.1710 N   0  0  0  0  0  0  0  0  0  0  0  0
   -5.7060    6.8560  -17.4270 C   0  0  0  0  0  0  0  0  0  0  0  0
   -3.5640    6.7190  -16.3830 N   0  0  0  0  0  0  0  0  0  0  0  0
   -6.0880    5.6350  -16.8720 C   0  0  0  0  0  0  0  0  0  0  0  0
   -7.4300    5.0430  -17.1520 C   0  0  0  0  0  0  0  0  0  0  0  0
   -7.7260    4.6920  -18.4700 C   0  0  0  0  0  0  0  0  0  0  0  0
   -8.9340    4.1170  -18.8140 C   0  0  0  0  0  0  0  0  0  0  0  0
   -9.8830    3.8820  -17.8460 C   0  0  0  0  0  0  0  0  0  0  0  0
   -9.6200    4.2120  -16.5300 C   0  0  0  0  0  0  0  0  0  0  0  0
   -8.3990    4.7850  -16.1590 C   0  0  0  0  0  0  0  0  0  0  0  0
   -8.2020    5.1480  -14.7120 C   0  0  0  0  0  0  0  0  0  0  0  0
   -8.5360    4.5410  -12.3800 C   0  0  0  0  0  0  0  0  0  0  0  0
   -8.2890    5.8270  -11.8610 C   0  0  0  0  0  0  0  0  0  0  0  0
   -8.6030    4.2890   -8.7360 C   0  0  0  0  0  0  0  0  0  0  0  0
   -8.7000    3.7300  -11.2430 C   0  0  0  0  0  0  0  0  0  0  0  0
   -5.1660    4.9670  -16.0860 C   0  0  0  0  0  0  0  0  0  0  0  0
   -3.9250    5.5350  -15.8590 C   0  0  0  0  0  0  0  0  0  0  0  0
  1  3  1  0  0  0  0
  3  4  1  0  0  0  0
  4  7  1  0  0  0  0
  5  8  4  0  0  0  0
  7  9  4  0  0  0  0
  7 10  4  0  0  0  0
  9 11  4  0  0  0  0
 11 12  1  0  0  0  0
 12 13  4  0  0  0  0
 13 14  4  0  0  0  0
 14 15  4  0  0  0  0
 15 16  4  0  0  0  0
 16 17  4  0  0  0  0
 12 17  4  0  0  0  0
 17 18  1  0  0  0  0
  2 18  1  0  0  0  0
  6 18  2  0  0  0  0
  2 19  1  0  0  0  0
 19 20  4  0  0  0  0
 19 22  4  0  0  0  0
  5 20  4  0  0  0  0
  8 21  1  0  0  0  0
  8 22  4  0  0  0  0
 11 23  4  0  0  0  0
 23 24  4  0  0  0  0
 10 24  4  0  0  0  0
M  END
>  <pdb_header>
HEADER    ----                                    08-NOV-23   XXXX              
TITLE     ---                                                                   
REMARK   3
REMARK   3 REFINEMENT.
REMARK   3   PROGRAM     : REFMAC 5.8.0267   
REMARK   3   AUTHORS     : MURSHUDOV,SKUBAK,LEBEDEV,PANNU,
REMARK   3                 STEINER,NICHOLLS,WINN,LONG,VAGIN
REMARK   3
REMARK   3    REFINEMENT TARGET : MAXIMUM LIKELIHOOD
REMARK   3
REMARK   3  DATA USED IN REFINEMENT.
REMARK   3   RESOLUTION RANGE HIGH (ANGSTROMS) :   1.43
REMARK   3   RESOLUTION RANGE LOW  (ANGSTROMS) :  54.13
REMARK   3   DATA CUTOFF            (SIGMA(F)) : NONE
REMARK   3   COMPLETENESS FOR RANGE        (%) :  95.73
REMARK   3   NUMBER OF REFLECTIONS             :   34598
REMARK   3
REMARK   3  FIT TO DATA USED IN REFINEMENT.
REMARK   3   CROSS-VALIDATION METHOD          : THROUGHOUT
REMARK   3   FREE R VALUE TEST SET SELECTION  : RANDOM
REMARK   3   R VALUE     (WORKING + TEST SET) : 0.22843
REMARK   3   R VALUE            (WORKING SET) :  0.22680
REMARK   3   FREE R VALUE                     :  0.25950
REMARK   3   FREE R VALUE TEST SET SIZE   (%) :  5.1
REMARK   3   FREE R VALUE TEST SET COUNT      :  1848
REMARK   3
REMARK   3  FIT IN THE HIGHEST RESOLUTION BIN.
REMARK   3   TOTAL NUMBER OF BINS USED           :      20
REMARK   3   BIN RESOLUTION RANGE HIGH           :    1.430
REMARK   3   BIN RESOLUTION RANGE LOW            :    1.468
REMARK   3   REFLECTION IN BIN     (WORKING SET) :     1305
REMARK   3   BIN COMPLETENESS (WORKING+TEST) (%) :    50.26
REMARK   3   BIN R VALUE           (WORKING SET) :    0.559
REMARK   3   BIN FREE R VALUE SET COUNT          :       72
REMARK   3   BIN FREE R VALUE                    :    0.531
REMARK   3
REMARK   3  NUMBER OF NON-HYDROGEN ATOMS USED IN REFINEMENT.
REMARK   3   ALL ATOMS                :     1892
REMARK   3
REMARK   3  B VALUES.
REMARK   3   FROM WILSON PLOT           (A**2) : NULL
REMARK   3   MEAN B VALUE      (OVERALL, A**2) :  43.314
REMARK   3   OVERALL ANISOTROPIC B VALUE.
REMARK   3    B11 (A**2) :    -0.23
REMARK   3    B22 (A**2) :    -0.23
REMARK   3    B33 (A**2) :     0.46
REMARK   3    B12 (A**2) :     0.00
REMARK   3    B13 (A**2) :     0.00
REMARK   3    B23 (A**2) :     0.00
REMARK   3
REMARK   3  ESTIMATED OVERALL COORDINATE ERROR.
REMARK   3   ESU BASED ON R VALUE                            (A):   0.089
REMARK   3   ESU BASED ON FREE R VALUE                       (A):   0.090
REMARK   3   ESU BASED ON MAXIMUM LIKELIHOOD                 (A):   0.144
REMARK   3   ESU FOR B VALUES BASED ON MAXIMUM LIKELIHOOD (A**2):   9.271
REMARK   3
REMARK   3 CORRELATION COEFFICIENTS.
REMARK   3   CORRELATION COEFFICIENT FO-FC      :   0.964
REMARK   3   CORRELATION COEFFICIENT FO-FC FREE :   0.955
REMARK   3
REMARK   3  RMS DEVIATIONS FROM IDEAL VALUES        COUNT    RMS    WEIGHT
REMARK   3   BOND LENGTHS REFINED ATOMS        (A):  2051 ; 0.020 ; 0.013
REMARK   3   BOND LENGTHS OTHERS               (A):  1698 ; 0.007 ; 0.015
REMARK   3   BOND ANGLES REFINED ATOMS   (DEGREES):  2525 ; 2.038 ; 1.639
REMARK   3   BOND ANGLES OTHERS          (DEGREES):  3917 ; 1.453 ; 1.591
REMARK   3   TORSION ANGLES, PERIOD 1    (DEGREES):   244 ; 7.896 ; 5.000
REMARK   3   TORSION ANGLES, PERIOD 2    (DEGREES):    83 ;32.374 ;22.771
REMARK   3   TORSION ANGLES, PERIOD 3    (DEGREES):   286 ;14.399 ;15.000
REMARK   3   TORSION ANGLES, PERIOD 4    (DEGREES):    10 ;17.092 ;15.000
REMARK   3   CHIRAL-CENTER RESTRAINTS       (A**3):   222 ; 0.128 ; 0.200
REMARK   3   GENERAL PLANES REFINED ATOMS      (A):  2193 ; 0.013 ; 0.020
REMARK   3   GENERAL PLANES OTHERS             (A):   427 ; 0.005 ; 0.020
REMARK   3
REMARK   3  ISOTROPIC THERMAL FACTOR RESTRAINTS.     COUNT   RMS    WEIGHT
REMARK   3   MAIN-CHAIN BOND REFINED ATOMS  (A**2):  1007 ; 1.667 ; 2.048
REMARK   3   MAIN-CHAIN BOND OTHER ATOMS    (A**2):   989 ; 1.671 ; 1.952
REMARK   3   MAIN-CHAIN ANGLE REFINED ATOMS (A**2):  1176 ; 2.901 ; 2.851
REMARK   3   MAIN-CHAIN ANGLE OTHER ATOMS (A**2)  :  1177 ; 2.900 ; 2.855
REMARK   3   SIDE-CHAIN BOND REFINED ATOMS  (A**2):  1044 ; 1.998 ; 2.739
REMARK   3   SIDE-CHAIN BOND OTHER ATOMS  (A**2)  :  1031 ; 2.003 ; 2.688
REMARK   3   SIDE-CHAIN ANGLE OTHER ATOMS (A**2)  :  1338 ; 3.379 ; 3.506
REMARK   3   LONG RANGE B REFINED ATOMS (A**2)    :  1990 ;15.454 ;23.656
REMARK   3   LONG RANGE B OTHER ATOMS (A**2)      :  1977 ;15.462 ;23.351
REMARK   3
REMARK   3  NCS RESTRAINTS STATISTICS
REMARK   3   NUMBER OF NCS GROUPS : NULL
REMARK   3
REMARK   3  TWIN DETAILS
REMARK   3   NUMBER OF TWIN DOMAINS  : NULL
REMARK   3
REMARK   3
REMARK   3  TLS DETAILS
REMARK   3   NUMBER OF TLS GROUPS  :    2
REMARK   3   ATOM RECORD CONTAINS SUM OF TLS AND RESIDUAL B FACTORS
REMARK   3
REMARK   3   TLS GROUP :     1
REMARK   3    NUMBER OF COMPONENTS GROUP :    1
REMARK   3    COMPONENTS        C SSSEQI   TO  C SSSEQI
REMARK   3    RESIDUE RANGE :   A    50        A    88
REMARK   3    ORIGIN FOR THE GROUP (A): -13.5782  -1.7052 -19.3367
REMARK   3    T TENSOR
REMARK   3      T11:   0.3321 T22:   0.3315
REMARK   3      T33:   0.0786 T12:   0.1762
REMARK   3      T13:   0.0941 T23:   0.0781
REMARK   3    L TENSOR
REMARK   3      L11:   2.0385 L22:   2.0764
REMARK   3      L33:   1.0049 L12:  -1.1663
REMARK   3      L13:   0.1988 L23:   0.3679
REMARK   3    S TENSOR
REMARK   3      S11:   0.4173 S12:   0.3128 S13:   0.3603
REMARK   3      S21:  -0.3767 S22:  -0.3609 S23:  -0.3220
REMARK   3      S31:   0.0236 S32:   0.1912 S33:  -0.0565
REMARK   3
REMARK   3   TLS GROUP :     2
REMARK   3    NUMBER OF COMPONENTS GROUP :    1
REMARK   3    COMPONENTS        C SSSEQI   TO  C SSSEQI
REMARK   3    RESIDUE RANGE :   B    16        B   302
REMARK   3    ORIGIN FOR THE GROUP (A): -18.5105   1.0181 -15.8200
REMARK   3    T TENSOR
REMARK   3      T11:   0.3337 T22:   0.3082
REMARK   3      T33:   0.0522 T12:   0.1264
REMARK   3      T13:   0.0411 T23:   0.0161
REMARK   3    L TENSOR
REMARK   3      L11:   0.9351 L22:   0.6987
REMARK   3      L33:   0.4324 L12:  -0.2668
REMARK   3      L13:   0.4923 L23:   0.0773
REMARK   3    S TENSOR
REMARK   3      S11:   0.2478 S12:   0.1410 S13:   0.0928
REMARK   3      S21:  -0.1309 S22:  -0.2551 S23:   0.0110
REMARK   3      S31:   0.0885 S32:   0.0641 S33:   0.0074
REMARK   3
REMARK   3
REMARK   3  BULK SOLVENT MODELLING.
REMARK   3   METHOD USED :  MASK
REMARK   3   PARAMETERS FOR MASK CALCULATION
REMARK   3   VDW PROBE RADIUS   :   1.20
REMARK   3   ION PROBE RADIUS   :   0.80
REMARK   3   SHRINKAGE RADIUS   :   0.80
REMARK   3
REMARK   3  OTHER REFINEMENT REMARKS:
REMARK   3  HYDROGENS HAVE BEEN ADDED IN THE RIDING POSITIONS
REMARK   3  U VALUES      : WITH TLS ADDED
REMARK   3
CRYST1   42.472   42.472  216.520  90.00  90.00  90.00 P 43 2 2                 


$$$$
Zx1261a_ligand
  PyMOL3.0          3D                             0

 24 26  0  0  0  0  0  0  0  0999 V2000
   -4.8940   10.1660  -16.0470 C   0  0  0  0  0  0  0  0  0  0  0  0
   -8.5830    4.2420  -13.7570 N   0  0  0  0  0  0  0  0  0  0  0  0
   -4.9310    9.7350  -17.4050 O   0  0  0  0  0  0  0  0  0  0  0  0
   -3.9910    8.7100  -17.6940 C   0  0  0  0  0  0  0  0  0  0  0  0
   -8.2920    5.8440  -10.5380 N   0  0  0  0  0  0  0  0  0  0  0  0
   -7.7250    6.2310  -14.4080 O   0  0  0  0  0  0  0  0  0  0  0  0
   -4.4440    7.3740  -17.1580 C   0  0  0  0  0  0  0  0  0  0  0  0
   -8.5500    4.5520  -10.1710 N   0  0  0  0  0  0  0  0  0  0  0  0
   -5.7060    6.8560  -17.4270 C   0  0  0  0  0  0  0  0  0  0  0  0
   -3.5640    6.7190  -16.3830 N   0  0  0  0  0  0  0  0  0  0  0  0
   -6.0880    5.6350  -16.8720 C   0  0  0  0  0  0  0  0  0  0  0  0
   -7.4300    5.0430  -17.1520 C   0  0  0  0  0  0  0  0  0  0  0  0
   -7.7260    4.6920  -18.4700 C   0  0  0  0  0  0  0  0  0  0  0  0
   -8.9340    4.1170  -18.8140 C   0  0  0  0  0  0  0  0  0  0  0  0
   -9.8830    3.8820  -17.8460 C   0  0  0  0  0  0  0  0  0  0  0  0
   -9.6200    4.2120  -16.5300 C   0  0  0  0  0  0  0  0  0  0  0  0
   -8.3990    4.7850  -16.1590 C   0  0  0  0  0  0  0  0  0  0  0  0
   -8.2020    5.1480  -14.7120 C   0  0  0  0  0  0  0  0  0  0  0  0
   -8.5360    4.5410  -12.3800 C   0  0  0  0  0  0  0  0  0  0  0  0
   -8.2890    5.8270  -11.8610 C   0  0  0  0  0  0  0  0  0  0  0  0
   -8.6030    4.2890   -8.7360 C   0  0  0  0  0  0  0  0  0  0  0  0
   -8.7000    3.7300  -11.2430 C   0  0  0  0  0  0  0  0  0  0  0  0
   -5.1660    4.9670  -16.0860 C   0  0  0  0  0  0  0  0  0  0  0  0
   -3.9250    5.5350  -15.8590 C   0  0  0  0  0  0  0  0  0  0  0  0
  1  3  1  0  0  0  0
  2 19  1  0  0  0  0
  3  4  1  0  0  0  0
  4  7  1  0  0  0  0
  5  8  4  0  0  0  0
  7  9  4  0  0  0  0
  7 10  4  0  0  0  0
  8 21  1  0  0  0  0
  8 22  4  0  0  0  0
  9 11  4  0  0  0  0
 11 12  1  0  0  0  0
 11 23  4  0  0  0  0
 12 13  4  0  0  0  0
 12 17  4  0  0  0  0
 13 14  4  0  0  0  0
 14 15  4  0  0  0  0
 15 16  4  0  0  0  0
 16 17  4  0  0  0  0
 17 18  1  0  0  0  0
  2 18  1  0  0  0  0
  6 18  2  0  0  0  0
 19 20  4  0  0  0  0
 19 22  4  0  0  0  0
  5 20  4  0  0  0  0
 23 24  4  0  0  0  0
 10 24  4  0  0  0  0
M  END
>  <pdb_header>
COMPND    XX01ZVNS2B-x1261_B_301_XX01ZVNS2B-x1291+B+301+1


$$$$
Zx1265a
  PyMOL3.0          3D                             0

 23 25  0  0  0  0  0  0  0  0999 V2000
   -1.9500    6.2700  -14.6650 C   0  0  0  0  0  0  0  0  0  0  0  0
   -8.5760    4.0420  -13.8870 N   0  0  0  0  0  0  0  0  0  0  0  0
   -3.1530    5.5340  -14.9490 O   0  0  0  0  0  0  0  0  0  0  0  0
   -4.0260    6.0410  -15.8530 C   0  0  0  0  0  0  0  0  0  0  0  0
   -8.8950    3.5620  -10.3280 N   0  0  0  0  0  0  0  0  0  0  0  0
   -7.7650    6.1020  -14.2920 O   0  0  0  0  0  0  0  0  0  0  0  0
   -5.2220    5.3580  -16.0370 C   0  0  0  0  0  0  0  0  0  0  0  0
   -8.4520    4.8550  -10.4130 N   0  0  0  0  0  0  0  0  0  0  0  0
   -6.1570    5.8550  -16.9440 C   0  0  0  0  0  0  0  0  0  0  0  0
   -3.7140    7.1410  -16.5130 N   0  0  0  0  0  0  0  0  0  0  0  0
   -7.4580    5.1640  -17.1950 C   0  0  0  0  0  0  0  0  0  0  0  0
   -7.7800    4.8710  -18.5220 C   0  0  0  0  0  0  0  0  0  0  0  0
   -8.9610    4.2390  -18.8620 C   0  0  0  0  0  0  0  0  0  0  0  0
   -9.8590    3.8910  -17.8840 C   0  0  0  0  0  0  0  0  0  0  0  0
   -9.5790    4.1720  -16.5630 C   0  0  0  0  0  0  0  0  0  0  0  0
   -8.3880    4.8080  -16.1940 C   0  0  0  0  0  0  0  0  0  0  0  0
   -8.2120    5.0500  -14.7190 C   0  0  0  0  0  0  0  0  0  0  0  0
   -8.6120    4.1460  -12.4860 C   0  0  0  0  0  0  0  0  0  0  0  0
   -8.9830    3.1500  -11.5830 C   0  0  0  0  0  0  0  0  0  0  0  0
   -8.2480    5.6340   -9.1950 C   0  0  0  0  0  0  0  0  0  0  0  0
   -8.2820    5.2460  -11.6950 C   0  0  0  0  0  0  0  0  0  0  0  0
   -5.8260    7.0010  -17.6400 C   0  0  0  0  0  0  0  0  0  0  0  0
   -4.6140    7.6190  -17.3990 C   0  0  0  0  0  0  0  0  0  0  0  0
  1  3  1  0  0  0  0
  3  4  1  0  0  0  0
  4  7  4  0  0  0  0
  4 10  4  0  0  0  0
  5  8  4  0  0  0  0
  7  9  4  0  0  0  0
  9 11  1  0  0  0  0
 11 12  4  0  0  0  0
 12 13  4  0  0  0  0
 13 14  4  0  0  0  0
 14 15  4  0  0  0  0
 11 16  4  0  0  0  0
 15 16  4  0  0  0  0
 16 17  1  0  0  0  0
  2 17  1  0  0  0  0
  6 17  2  0  0  0  0
  2 18  1  0  0  0  0
 18 19  4  0  0  0  0
 18 21  4  0  0  0  0
  5 19  4  0  0  0  0
  8 20  1  0  0  0  0
  8 21  4  0  0  0  0
  9 22  4  0  0  0  0
 22 23  4  0  0  0  0
 10 23  4  0  0  0  0
M  END
>  <pdb_header>
HEADER    ----                                    08-NOV-23   XXXX              
TITLE     ---                                                                   
REMARK   3
REMARK   3 REFINEMENT.
REMARK   3   PROGRAM     : REFMAC 5.8.0267   
REMARK   3   AUTHORS     : MURSHUDOV,SKUBAK,LEBEDEV,PANNU,
REMARK   3                 STEINER,NICHOLLS,WINN,LONG,VAGIN
REMARK   3
REMARK   3    REFINEMENT TARGET : MAXIMUM LIKELIHOOD
REMARK   3
REMARK   3  DATA USED IN REFINEMENT.
REMARK   3   RESOLUTION RANGE HIGH (ANGSTROMS) :   1.81
REMARK   3   RESOLUTION RANGE LOW  (ANGSTROMS) :  42.51
REMARK   3   DATA CUTOFF            (SIGMA(F)) : NONE
REMARK   3   COMPLETENESS FOR RANGE        (%) :  99.83
REMARK   3   NUMBER OF REFLECTIONS             :   18262
REMARK   3
REMARK   3  FIT TO DATA USED IN REFINEMENT.
REMARK   3   CROSS-VALIDATION METHOD          : THROUGHOUT
REMARK   3   FREE R VALUE TEST SET SELECTION  : RANDOM
REMARK   3   R VALUE     (WORKING + TEST SET) : 0.21714
REMARK   3   R VALUE            (WORKING SET) :  0.21453
REMARK   3   FREE R VALUE                     :  0.26712
REMARK   3   FREE R VALUE TEST SET SIZE   (%) :  5.0
REMARK   3   FREE R VALUE TEST SET COUNT      :   964
REMARK   3
REMARK   3  FIT IN THE HIGHEST RESOLUTION BIN.
REMARK   3   TOTAL NUMBER OF BINS USED           :      20
REMARK   3   BIN RESOLUTION RANGE HIGH           :    1.810
REMARK   3   BIN RESOLUTION RANGE LOW            :    1.857
REMARK   3   REFLECTION IN BIN     (WORKING SET) :     1278
REMARK   3   BIN COMPLETENESS (WORKING+TEST) (%) :    98.27
REMARK   3   BIN R VALUE           (WORKING SET) :    0.434
REMARK   3   BIN FREE R VALUE SET COUNT          :       83
REMARK   3   BIN FREE R VALUE                    :    0.446
REMARK   3
REMARK   3  NUMBER OF NON-HYDROGEN ATOMS USED IN REFINEMENT.
REMARK   3   ALL ATOMS                :     3747
REMARK   3
REMARK   3  B VALUES.
REMARK   3   FROM WILSON PLOT           (A**2) : NULL
REMARK   3   MEAN B VALUE      (OVERALL, A**2) :  48.280
REMARK   3   OVERALL ANISOTROPIC B VALUE.
REMARK   3    B11 (A**2) :     0.17
REMARK   3    B22 (A**2) :     0.17
REMARK   3    B33 (A**2) :    -0.34
REMARK   3    B12 (A**2) :    -0.00
REMARK   3    B13 (A**2) :    -0.00
REMARK   3    B23 (A**2) :    -0.00
REMARK   3
REMARK   3  ESTIMATED OVERALL COORDINATE ERROR.
REMARK   3   ESU BASED ON R VALUE                            (A):   0.423
REMARK   3   ESU BASED ON FREE R VALUE                       (A):   0.223
REMARK   3   ESU BASED ON MAXIMUM LIKELIHOOD                 (A):   0.290
REMARK   3   ESU FOR B VALUES BASED ON MAXIMUM LIKELIHOOD (A**2):  21.703
REMARK   3
REMARK   3 CORRELATION COEFFICIENTS.
REMARK   3   CORRELATION COEFFICIENT FO-FC      :   0.962
REMARK   3   CORRELATION COEFFICIENT FO-FC FREE :   0.942
REMARK   3
REMARK   3  RMS DEVIATIONS FROM IDEAL VALUES        COUNT    RMS    WEIGHT
REMARK   3   BOND LENGTHS REFINED ATOMS        (A):  5045 ; 0.011 ; 0.015
REMARK   3   BOND LENGTHS OTHERS               (A):  3179 ; 0.003 ; 0.016
REMARK   3   BOND ANGLES REFINED ATOMS   (DEGREES):  5022 ; 1.642 ; 1.633
REMARK   3   BOND ANGLES OTHERS          (DEGREES):  7396 ; 1.290 ; 1.603
REMARK   3   TORSION ANGLES, PERIOD 1    (DEGREES):   526 ; 8.267 ; 5.000
REMARK   3   TORSION ANGLES, PERIOD 2    (DEGREES):   188 ;36.607 ;24.255
REMARK   3   TORSION ANGLES, PERIOD 3    (DEGREES):   532 ;14.812 ;15.000
REMARK   3   TORSION ANGLES, PERIOD 4    (DEGREES):    16 ;17.967 ;15.000
REMARK   3   CHIRAL-CENTER RESTRAINTS       (A**3):   417 ; 0.063 ; 0.200
REMARK   3   GENERAL PLANES REFINED ATOMS      (A):  4704 ; 0.010 ; 0.020
REMARK   3   GENERAL PLANES OTHERS             (A):   868 ; 0.004 ; 0.020
REMARK   3
REMARK   3  ISOTROPIC THERMAL FACTOR RESTRAINTS.     COUNT   RMS    WEIGHT
REMARK   3   MAIN-CHAIN BOND REFINED ATOMS  (A**2):  2706 ; 1.562 ; 3.244
REMARK   3   MAIN-CHAIN BOND OTHER ATOMS    (A**2):  2566 ; 1.604 ; 3.178
REMARK   3   MAIN-CHAIN ANGLE REFINED ATOMS (A**2):  2490 ; 3.099 ; 4.718
REMARK   3   MAIN-CHAIN ANGLE OTHER ATOMS (A**2)  :  2491 ; 3.099 ; 4.721
REMARK   3   SIDE-CHAIN BOND REFINED ATOMS  (A**2):  2337 ; 1.686 ; 3.459
REMARK   3   SIDE-CHAIN BOND OTHER ATOMS  (A**2)  :  2337 ; 1.686 ; 3.459
REMARK   3   SIDE-CHAIN ANGLE OTHER ATOMS (A**2)  :  2533 ; 3.217 ; 5.056
REMARK   3   LONG RANGE B REFINED ATOMS (A**2)    :  4163 ; 6.230 ;36.595
REMARK   3   LONG RANGE B OTHER ATOMS (A**2)      :  4126 ; 6.165 ;36.347
REMARK   3
REMARK   3  NCS RESTRAINTS STATISTICS
REMARK   3   NUMBER OF NCS GROUPS : NULL
REMARK   3
REMARK   3  TWIN DETAILS
REMARK   3   NUMBER OF TWIN DOMAINS  : NULL
REMARK   3
REMARK   3
REMARK   3  TLS DETAILS
REMARK   3   NUMBER OF TLS GROUPS  :    2
REMARK   3   ATOM RECORD CONTAINS SUM OF TLS AND RESIDUAL B FACTORS
REMARK   3
REMARK   3   TLS GROUP :     1
REMARK   3    NUMBER OF COMPONENTS GROUP :    1
REMARK   3    COMPONENTS        C SSSEQI   TO  C SSSEQI
REMARK   3    RESIDUE RANGE :   A    50        A    88
REMARK   3    ORIGIN FOR THE GROUP (A): -13.3887  -1.8959 -19.3261
REMARK   3    T TENSOR
REMARK   3      T11:   0.2032 T22:   0.2163
REMARK   3      T33:   0.0337 T12:   0.0903
REMARK   3      T13:   0.0577 T23:   0.0470
REMARK   3    L TENSOR
REMARK   3      L11:   1.2211 L22:   1.7387
REMARK   3      L33:   1.1613 L12:  -0.7378
REMARK   3      L13:   0.2504 L23:   0.0813
REMARK   3    S TENSOR
REMARK   3      S11:   0.2450 S12:   0.1803 S13:   0.1618
REMARK   3      S21:  -0.2610 S22:  -0.2167 S23:  -0.1883
REMARK   3      S31:   0.0257 S32:   0.1755 S33:  -0.0283
REMARK   3
REMARK   3   TLS GROUP :     2
REMARK   3    NUMBER OF COMPONENTS GROUP :    1
REMARK   3    COMPONENTS        C SSSEQI   TO  C SSSEQI
REMARK   3    RESIDUE RANGE :   B    16        B   301
REMARK   3    ORIGIN FOR THE GROUP (A): -18.6806   1.5363 -15.8852
REMARK   3    T TENSOR
REMARK   3      T11:   0.2550 T22:   0.2657
REMARK   3      T33:   0.0216 T12:   0.1008
REMARK   3      T13:   0.0376 T23:  -0.0027
REMARK   3    L TENSOR
REMARK   3      L11:   0.6944 L22:   0.3727
REMARK   3      L33:   0.3472 L12:  -0.4462
REMARK   3      L13:   0.3002 L23:  -0.0738
REMARK   3    S TENSOR
REMARK   3      S11:   0.1619 S12:   0.1768 S13:   0.0598
REMARK   3      S21:  -0.1127 S22:  -0.2136 S23:  -0.0084
REMARK   3      S31:   0.0654 S32:   0.0308 S33:   0.0517
REMARK   3
REMARK   3
REMARK   3  BULK SOLVENT MODELLING.
REMARK   3   METHOD USED :  MASK
REMARK   3   PARAMETERS FOR MASK CALCULATION
REMARK   3   VDW PROBE RADIUS   :   1.20
REMARK   3   ION PROBE RADIUS   :   0.80
REMARK   3   SHRINKAGE RADIUS   :   0.80
REMARK   3
REMARK   3  OTHER REFINEMENT REMARKS:
REMARK   3  HYDROGENS HAVE BEEN ADDED IN THE RIDING POSITIONS
REMARK   3  U VALUES      : WITH TLS ADDED
REMARK   3
LINK             ILE A  53                     ARG A  55     1555               
CRYST1   42.470   42.470  217.030  90.00  90.00  90.00 P 43 2 2                 


$$$$
Zx1265a_ligand
  PyMOL3.0          3D                             0

 23 25  0  0  0  0  0  0  0  0999 V2000
   -1.9500    6.2700  -14.6650 C   0  0  0  0  0  0  0  0  0  0  0  0
   -8.5760    4.0420  -13.8870 N   0  0  0  0  0  0  0  0  0  0  0  0
   -3.1530    5.5340  -14.9490 O   0  0  0  0  0  0  0  0  0  0  0  0
   -4.0260    6.0410  -15.8530 C   0  0  0  0  0  0  0  0  0  0  0  0
   -8.8950    3.5620  -10.3280 N   0  0  0  0  0  0  0  0  0  0  0  0
   -7.7650    6.1020  -14.2920 O   0  0  0  0  0  0  0  0  0  0  0  0
   -5.2220    5.3580  -16.0370 C   0  0  0  0  0  0  0  0  0  0  0  0
   -8.4520    4.8550  -10.4130 N   0  0  0  0  0  0  0  0  0  0  0  0
   -6.1570    5.8550  -16.9440 C   0  0  0  0  0  0  0  0  0  0  0  0
   -3.7140    7.1410  -16.5130 N   0  0  0  0  0  0  0  0  0  0  0  0
   -7.4580    5.1640  -17.1950 C   0  0  0  0  0  0  0  0  0  0  0  0
   -7.7800    4.8710  -18.5220 C   0  0  0  0  0  0  0  0  0  0  0  0
   -8.9610    4.2390  -18.8620 C   0  0  0  0  0  0  0  0  0  0  0  0
   -9.8590    3.8910  -17.8840 C   0  0  0  0  0  0  0  0  0  0  0  0
   -9.5790    4.1720  -16.5630 C   0  0  0  0  0  0  0  0  0  0  0  0
   -8.3880    4.8080  -16.1940 C   0  0  0  0  0  0  0  0  0  0  0  0
   -8.2120    5.0500  -14.7190 C   0  0  0  0  0  0  0  0  0  0  0  0
   -8.6120    4.1460  -12.4860 C   0  0  0  0  0  0  0  0  0  0  0  0
   -8.9830    3.1500  -11.5830 C   0  0  0  0  0  0  0  0  0  0  0  0
   -8.2480    5.6340   -9.1950 C   0  0  0  0  0  0  0  0  0  0  0  0
   -8.2820    5.2460  -11.6950 C   0  0  0  0  0  0  0  0  0  0  0  0
   -5.8260    7.0010  -17.6400 C   0  0  0  0  0  0  0  0  0  0  0  0
   -4.6140    7.6190  -17.3990 C   0  0  0  0  0  0  0  0  0  0  0  0
  1  3  1  0  0  0  0
  2 18  1  0  0  0  0
  3  4  1  0  0  0  0
  4  7  4  0  0  0  0
  4 10  4  0  0  0  0
  5  8  4  0  0  0  0
  7  9  4  0  0  0  0
  8 20  1  0  0  0  0
  8 21  4  0  0  0  0
  9 11  1  0  0  0  0
  9 22  4  0  0  0  0
 11 12  4  0  0  0  0
 11 16  4  0  0  0  0
 12 13  4  0  0  0  0
 13 14  4  0  0  0  0
 14 15  4  0  0  0  0
 15 16  4  0  0  0  0
 16 17  1  0  0  0  0
  2 17  1  0  0  0  0
  6 17  2  0  0  0  0
 18 19  4  0  0  0  0
 18 21  4  0  0  0  0
  5 19  4  0  0  0  0
 22 23  4  0  0  0  0
 10 23  4  0  0  0  0
M  END
>  <pdb_header>
COMPND    XX01ZVNS2B-x1265_B_301_XX01ZVNS2B-x1291+B+301+1


$$$$
Zx1271a
  PyMOL3.0          3D                             0

 20 22  0  0  0  0  0  0  0  0999 V2000
   -8.4280    6.7870  -11.3910 C   0  0  0  0  0  0  0  0  0  0  0  0
   -8.6000    3.9540   -8.9170 N   0  0  0  0  0  0  0  0  0  0  0  0
   -6.3240    5.4280  -13.2220 O   0  0  0  0  0  0  0  0  0  0  0  0
   -8.4770    5.3830  -10.8430 C   0  0  0  0  0  0  0  0  0  0  0  0
   -8.3680    4.4410  -13.0860 N   0  0  0  0  0  0  0  0  0  0  0  0
   -8.5510    5.1740   -9.4740 C   0  0  0  0  0  0  0  0  0  0  0  0
   -6.9330    5.1250  -17.4550 N   0  0  0  0  0  0  0  0  0  0  0  0
   -8.5770    2.9040   -9.7420 C   0  0  0  0  0  0  0  0  0  0  0  0
   -8.4970    3.0070  -11.1070 C   0  0  0  0  0  0  0  0  0  0  0  0
   -8.4500    4.2680  -11.6820 C   0  0  0  0  0  0  0  0  0  0  0  0
   -7.3100    4.9590  -13.7800 C   0  0  0  0  0  0  0  0  0  0  0  0
   -7.4160    4.9160  -15.2470 C   0  0  0  0  0  0  0  0  0  0  0  0
   -8.5060    4.4390  -16.0230 C   0  0  0  0  0  0  0  0  0  0  0  0
   -8.1970    4.5740  -17.3570 C   0  0  0  0  0  0  0  0  0  0  0  0
   -8.9350    4.2410  -18.5810 C   0  0  0  0  0  0  0  0  0  0  0  0
   -9.4500    2.8470  -18.7620 C   0  0  0  0  0  0  0  0  0  0  0  0
  -10.4020    3.9480  -18.5260 C   0  0  0  0  0  0  0  0  0  0  0  0
   -6.2210    5.4250  -18.6970 C   0  0  0  0  0  0  0  0  0  0  0  0
   -6.4360    5.3340  -16.1450 C   0  0  0  0  0  0  0  0  0  0  0  0
   -5.0820    5.9180  -15.9290 C   0  0  0  0  0  0  0  0  0  0  0  0
  1  4  1  0  0  0  0
  4  6  4  0  0  0  0
  4 10  4  0  0  0  0
  2  6  4  0  0  0  0
  2  8  4  0  0  0  0
  8  9  4  0  0  0  0
  9 10  4  0  0  0  0
  5 10  1  0  0  0  0
  3 11  2  0  0  0  0
  5 11  1  0  0  0  0
 11 12  1  0  0  0  0
 12 13  4  0  0  0  0
  7 14  4  0  0  0  0
 13 14  4  0  0  0  0
 14 15  1  0  0  0  0
 15 16  1  0  0  0  0
 15 17  1  0  0  0  0
 16 17  1  0  0  0  0
  7 18  1  0  0  0  0
  7 19  4  0  0  0  0
 12 19  4  0  0  0  0
 19 20  1  0  0  0  0
M  END
>  <pdb_header>
HEADER    ----                                    18-JAN-24   XXXX              
TITLE     ---                                                                   
REMARK   3
REMARK   3 REFINEMENT.
REMARK   3   PROGRAM     : REFMAC 5.8.0267   
REMARK   3   AUTHORS     : MURSHUDOV,SKUBAK,LEBEDEV,PANNU,
REMARK   3                 STEINER,NICHOLLS,WINN,LONG,VAGIN
REMARK   3
REMARK   3    REFINEMENT TARGET : MAXIMUM LIKELIHOOD
REMARK   3
REMARK   3  DATA USED IN REFINEMENT.
REMARK   3   RESOLUTION RANGE HIGH (ANGSTROMS) :   1.60
REMARK   3   RESOLUTION RANGE LOW  (ANGSTROMS) :  54.22
REMARK   3   DATA CUTOFF            (SIGMA(F)) : NONE
REMARK   3   COMPLETENESS FOR RANGE        (%) :  84.57
REMARK   3   NUMBER OF REFLECTIONS             :   21998
REMARK   3
REMARK   3  FIT TO DATA USED IN REFINEMENT.
REMARK   3   CROSS-VALIDATION METHOD          : THROUGHOUT
REMARK   3   FREE R VALUE TEST SET SELECTION  : RANDOM
REMARK   3   R VALUE     (WORKING + TEST SET) : 0.24488
REMARK   3   R VALUE            (WORKING SET) :  0.24241
REMARK   3   FREE R VALUE                     :  0.29170
REMARK   3   FREE R VALUE TEST SET SIZE   (%) :  5.1
REMARK   3   FREE R VALUE TEST SET COUNT      :  1178
REMARK   3
REMARK   3  FIT IN THE HIGHEST RESOLUTION BIN.
REMARK   3   TOTAL NUMBER OF BINS USED           :      20
REMARK   3   BIN RESOLUTION RANGE HIGH           :    1.602
REMARK   3   BIN RESOLUTION RANGE LOW            :    1.644
REMARK   3   REFLECTION IN BIN     (WORKING SET) :      109
REMARK   3   BIN COMPLETENESS (WORKING+TEST) (%) :     5.78
REMARK   3   BIN R VALUE           (WORKING SET) :    0.640
REMARK   3   BIN FREE R VALUE SET COUNT          :        5
REMARK   3   BIN FREE R VALUE                    :    0.594
REMARK   3
REMARK   3  NUMBER OF NON-HYDROGEN ATOMS USED IN REFINEMENT.
REMARK   3   ALL ATOMS                :     1877
REMARK   3
REMARK   3  B VALUES.
REMARK   3   FROM WILSON PLOT           (A**2) : NULL
REMARK   3   MEAN B VALUE      (OVERALL, A**2) :  45.656
REMARK   3   OVERALL ANISOTROPIC B VALUE.
REMARK   3    B11 (A**2) :     1.50
REMARK   3    B22 (A**2) :     1.50
REMARK   3    B33 (A**2) :    -3.00
REMARK   3    B12 (A**2) :    -0.00
REMARK   3    B13 (A**2) :     0.00
REMARK   3    B23 (A**2) :     0.00
REMARK   3
REMARK   3  ESTIMATED OVERALL COORDINATE ERROR.
REMARK   3   ESU BASED ON R VALUE                            (A):   0.150
REMARK   3   ESU BASED ON FREE R VALUE                       (A):   0.147
REMARK   3   ESU BASED ON MAXIMUM LIKELIHOOD                 (A):   0.228
REMARK   3   ESU FOR B VALUES BASED ON MAXIMUM LIKELIHOOD (A**2):   7.986
REMARK   3
REMARK   3 CORRELATION COEFFICIENTS.
REMARK   3   CORRELATION COEFFICIENT FO-FC      :   0.961
REMARK   3   CORRELATION COEFFICIENT FO-FC FREE :   0.946
REMARK   3
REMARK   3  RMS DEVIATIONS FROM IDEAL VALUES        COUNT    RMS    WEIGHT
REMARK   3   BOND LENGTHS REFINED ATOMS        (A):  2014 ; 0.007 ; 0.013
REMARK   3   BOND LENGTHS OTHERS               (A):  1667 ; 0.001 ; 0.015
REMARK   3   BOND ANGLES REFINED ATOMS   (DEGREES):  2498 ; 1.483 ; 1.640
REMARK   3   BOND ANGLES OTHERS          (DEGREES):  3844 ; 1.208 ; 1.583
REMARK   3   TORSION ANGLES, PERIOD 1    (DEGREES):   238 ; 7.916 ; 5.000
REMARK   3   TORSION ANGLES, PERIOD 2    (DEGREES):    83 ;30.515 ;22.410
REMARK   3   TORSION ANGLES, PERIOD 3    (DEGREES):   274 ;15.061 ;15.000
REMARK   3   TORSION ANGLES, PERIOD 4    (DEGREES):    10 ;19.343 ;15.000
REMARK   3   CHIRAL-CENTER RESTRAINTS       (A**3):   221 ; 0.060 ; 0.200
REMARK   3   GENERAL PLANES REFINED ATOMS      (A):  2145 ; 0.006 ; 0.020
REMARK   3   GENERAL PLANES OTHERS             (A):   417 ; 0.002 ; 0.020
REMARK   3
REMARK   3  ISOTROPIC THERMAL FACTOR RESTRAINTS.     COUNT   RMS    WEIGHT
REMARK   3   MAIN-CHAIN BOND REFINED ATOMS  (A**2):   987 ; 3.145 ; 4.316
REMARK   3   MAIN-CHAIN BOND OTHER ATOMS    (A**2):   962 ; 3.181 ; 4.248
REMARK   3   MAIN-CHAIN ANGLE REFINED ATOMS (A**2):  1152 ; 4.840 ; 6.336
REMARK   3   MAIN-CHAIN ANGLE OTHER ATOMS (A**2)  :  1153 ; 4.838 ; 6.340
REMARK   3   SIDE-CHAIN BOND REFINED ATOMS  (A**2):  1027 ; 3.397 ; 5.198
REMARK   3   SIDE-CHAIN BOND OTHER ATOMS  (A**2)  :  1015 ; 3.414 ; 5.139
REMARK   3   SIDE-CHAIN ANGLE OTHER ATOMS (A**2)  :  1329 ; 5.627 ; 7.166
REMARK   3   LONG RANGE B REFINED ATOMS (A**2)    :  2046 ;18.342 ;48.489
REMARK   3   LONG RANGE B OTHER ATOMS (A**2)      :  2028 ;18.373 ;48.354
REMARK   3
REMARK   3  NCS RESTRAINTS STATISTICS
REMARK   3   NUMBER OF NCS GROUPS : NULL
REMARK   3
REMARK   3  TWIN DETAILS
REMARK   3   NUMBER OF TWIN DOMAINS  : NULL
REMARK   3
REMARK   3
REMARK   3  TLS DETAILS
REMARK   3   NUMBER OF TLS GROUPS  : NULL
REMARK   3
REMARK   3
REMARK   3  BULK SOLVENT MODELLING.
REMARK   3   METHOD USED :  MASK
REMARK   3   PARAMETERS FOR MASK CALCULATION
REMARK   3   VDW PROBE RADIUS   :   1.20
REMARK   3   ION PROBE RADIUS   :   0.80
REMARK   3   SHRINKAGE RADIUS   :   0.80
REMARK   3
REMARK   3  OTHER REFINEMENT REMARKS:
REMARK   3  HYDROGENS HAVE BEEN ADDED IN THE RIDING POSITIONS
REMARK   3  U VALUES      : REFINED INDIVIDUALLY
REMARK   3
CRYST1   42.447   42.447  216.891  90.00  90.00  90.00 P 43 2 2                 


$$$$
Zx1271a_ligand
  PyMOL3.0          3D                             0

 20 22  0  0  0  0  0  0  0  0999 V2000
   -8.4280    6.7870  -11.3910 C   0  0  0  0  0  0  0  0  0  0  0  0
   -8.6000    3.9540   -8.9170 N   0  0  0  0  0  0  0  0  0  0  0  0
   -6.3240    5.4280  -13.2220 O   0  0  0  0  0  0  0  0  0  0  0  0
   -8.4770    5.3830  -10.8430 C   0  0  0  0  0  0  0  0  0  0  0  0
   -8.3680    4.4410  -13.0860 N   0  0  0  0  0  0  0  0  0  0  0  0
   -8.5510    5.1740   -9.4740 C   0  0  0  0  0  0  0  0  0  0  0  0
   -6.9330    5.1250  -17.4550 N   0  0  0  0  0  0  0  0  0  0  0  0
   -8.5770    2.9040   -9.7420 C   0  0  0  0  0  0  0  0  0  0  0  0
   -8.4970    3.0070  -11.1070 C   0  0  0  0  0  0  0  0  0  0  0  0
   -8.4500    4.2680  -11.6820 C   0  0  0  0  0  0  0  0  0  0  0  0
   -7.3100    4.9590  -13.7800 C   0  0  0  0  0  0  0  0  0  0  0  0
   -7.4160    4.9160  -15.2470 C   0  0  0  0  0  0  0  0  0  0  0  0
   -8.5060    4.4390  -16.0230 C   0  0  0  0  0  0  0  0  0  0  0  0
   -8.1970    4.5740  -17.3570 C   0  0  0  0  0  0  0  0  0  0  0  0
   -8.9350    4.2410  -18.5810 C   0  0  0  0  0  0  0  0  0  0  0  0
   -9.4500    2.8470  -18.7620 C   0  0  0  0  0  0  0  0  0  0  0  0
  -10.4020    3.9480  -18.5260 C   0  0  0  0  0  0  0  0  0  0  0  0
   -6.2210    5.4250  -18.6970 C   0  0  0  0  0  0  0  0  0  0  0  0
   -6.4360    5.3340  -16.1450 C   0  0  0  0  0  0  0  0  0  0  0  0
   -5.0820    5.9180  -15.9290 C   0  0  0  0  0  0  0  0  0  0  0  0
  1  4  1  0  0  0  0
  2  8  4  0  0  0  0
  4  6  4  0  0  0  0
  4 10  4  0  0  0  0
  5 11  1  0  0  0  0
  2  6  4  0  0  0  0
  7 18  1  0  0  0  0
  7 19  4  0  0  0  0
  8  9  4  0  0  0  0
  9 10  4  0  0  0  0
  5 10  1  0  0  0  0
  3 11  2  0  0  0  0
 11 12  1  0  0  0  0
 12 13  4  0  0  0  0
 12 19  4  0  0  0  0
 13 14  4  0  0  0  0
  7 14  4  0  0  0  0
 14 15  1  0  0  0  0
 15 16  1  0  0  0  0
 15 17  1  0  0  0  0
 16 17  1  0  0  0  0
 19 20  1  0  0  0  0
M  END
>  <pdb_header>
COMPND    XX01ZVNS2B-x1271_B_301_XX01ZVNS2B-x1291+B+301+1


$$$$
Zx1274a
  PyMOL3.0          3D                             0

 21 23  0  0  0  0  0  0  0  0999 V2000
   -8.4360    6.7720  -11.7140 C   0  0  0  0  0  0  0  0  0  0  0  0
   -8.5340    4.0580   -9.1020 N   0  0  0  0  0  0  0  0  0  0  0  0
   -6.5420    5.3290  -13.7000 O   0  0  0  0  0  0  0  0  0  0  0  0
   -4.0620    4.9710  -18.2970 S   0  0  0  0  0  0  0  0  0  0  0  0
   -8.4840    5.3920  -11.1020 C   0  0  0  0  0  0  0  0  0  0  0  0
   -8.5230    4.3120  -13.3250 N   0  0  0  0  0  0  0  0  0  0  0  0
   -8.4880    5.2520   -9.7230 C   0  0  0  0  0  0  0  0  0  0  0  0
   -5.8420    4.8670  -20.1430 N   0  0  0  0  0  0  0  0  0  0  0  0
   -8.5690    2.9700   -9.8760 C   0  0  0  0  0  0  0  0  0  0  0  0
   -8.5630    3.0060  -11.2440 C   0  0  0  0  0  0  0  0  0  0  0  0
   -8.5120    4.2340  -11.8880 C   0  0  0  0  0  0  0  0  0  0  0  0
   -7.5460    4.7800  -14.1460 C   0  0  0  0  0  0  0  0  0  0  0  0
   -7.7280    4.5910  -15.6310 C   0  0  0  0  0  0  0  0  0  0  0  0
   -8.9580    4.1980  -16.1590 C   0  0  0  0  0  0  0  0  0  0  0  0
   -9.1240    4.0210  -17.5200 C   0  0  0  0  0  0  0  0  0  0  0  0
   -8.0670    4.2320  -18.3850 C   0  0  0  0  0  0  0  0  0  0  0  0
   -6.8260    4.6320  -17.8970 C   0  0  0  0  0  0  0  0  0  0  0  0
   -5.7090    4.8310  -18.8330 C   0  0  0  0  0  0  0  0  0  0  0  0
   -4.6140    4.9160  -20.7450 C   0  0  0  0  0  0  0  0  0  0  0  0
   -3.5870    5.1590  -19.9280 C   0  0  0  0  0  0  0  0  0  0  0  0
   -6.6660    4.8000  -16.5150 C   0  0  0  0  0  0  0  0  0  0  0  0
  1  5  1  0  0  0  0
  5  7  4  0  0  0  0
  5 11  4  0  0  0  0
  2  7  4  0  0  0  0
  2  9  4  0  0  0  0
  9 10  4  0  0  0  0
 10 11  4  0  0  0  0
  6 11  1  0  0  0  0
  3 12  2  0  0  0  0
  6 12  1  0  0  0  0
 12 13  1  0  0  0  0
 13 14  4  0  0  0  0
 14 15  4  0  0  0  0
 15 16  4  0  0  0  0
 16 17  4  0  0  0  0
 17 18  1  0  0  0  0
 17 21  4  0  0  0  0
  4 18  4  0  0  0  0
  8 18  4  0  0  0  0
  8 19  4  0  0  0  0
 19 20  4  0  0  0  0
  4 20  4  0  0  0  0
 13 21  4  0  0  0  0
M  END
>  <pdb_header>
HEADER    ----                                    05-DEC-23   XXXX              
TITLE     ---                                                                   
REMARK   3
REMARK   3 REFINEMENT.
REMARK   3   PROGRAM     : REFMAC 5.8.0267   
REMARK   3   AUTHORS     : MURSHUDOV,SKUBAK,LEBEDEV,PANNU,
REMARK   3                 STEINER,NICHOLLS,WINN,LONG,VAGIN
REMARK   3
REMARK   3    REFINEMENT TARGET : MAXIMUM LIKELIHOOD
REMARK   3
REMARK   3  DATA USED IN REFINEMENT.
REMARK   3   RESOLUTION RANGE HIGH (ANGSTROMS) :   1.59
REMARK   3   RESOLUTION RANGE LOW  (ANGSTROMS) :  54.11
REMARK   3   DATA CUTOFF            (SIGMA(F)) : NONE
REMARK   3   COMPLETENESS FOR RANGE        (%) :  90.40
REMARK   3   NUMBER OF REFLECTIONS             :   24031
REMARK   3
REMARK   3  FIT TO DATA USED IN REFINEMENT.
REMARK   3   CROSS-VALIDATION METHOD          : THROUGHOUT
REMARK   3   FREE R VALUE TEST SET SELECTION  : RANDOM
REMARK   3   R VALUE     (WORKING + TEST SET) : 0.25576
REMARK   3   R VALUE            (WORKING SET) :  0.25412
REMARK   3   FREE R VALUE                     :  0.28683
REMARK   3   FREE R VALUE TEST SET SIZE   (%) :  5.1
REMARK   3   FREE R VALUE TEST SET COUNT      :  1303
REMARK   3
REMARK   3  FIT IN THE HIGHEST RESOLUTION BIN.
REMARK   3   TOTAL NUMBER OF BINS USED           :      20
REMARK   3   BIN RESOLUTION RANGE HIGH           :    1.590
REMARK   3   BIN RESOLUTION RANGE LOW            :    1.631
REMARK   3   REFLECTION IN BIN     (WORKING SET) :      188
REMARK   3   BIN COMPLETENESS (WORKING+TEST) (%) :    10.00
REMARK   3   BIN R VALUE           (WORKING SET) :    0.708
REMARK   3   BIN FREE R VALUE SET COUNT          :       14
REMARK   3   BIN FREE R VALUE                    :    0.646
REMARK   3
REMARK   3  NUMBER OF NON-HYDROGEN ATOMS USED IN REFINEMENT.
REMARK   3   ALL ATOMS                :     2412
REMARK   3
REMARK   3  B VALUES.
REMARK   3   FROM WILSON PLOT           (A**2) : NULL
REMARK   3   MEAN B VALUE      (OVERALL, A**2) :  43.067
REMARK   3   OVERALL ANISOTROPIC B VALUE.
REMARK   3    B11 (A**2) :    -0.59
REMARK   3    B22 (A**2) :    -0.59
REMARK   3    B33 (A**2) :     1.19
REMARK   3    B12 (A**2) :     0.00
REMARK   3    B13 (A**2) :    -0.00
REMARK   3    B23 (A**2) :    -0.00
REMARK   3
REMARK   3  ESTIMATED OVERALL COORDINATE ERROR.
REMARK   3   ESU BASED ON R VALUE                            (A):   0.174
REMARK   3   ESU BASED ON FREE R VALUE                       (A):   0.152
REMARK   3   ESU BASED ON MAXIMUM LIKELIHOOD                 (A):   0.271
REMARK   3   ESU FOR B VALUES BASED ON MAXIMUM LIKELIHOOD (A**2):  21.028
REMARK   3
REMARK   3 CORRELATION COEFFICIENTS.
REMARK   3   CORRELATION COEFFICIENT FO-FC      :   0.951
REMARK   3   CORRELATION COEFFICIENT FO-FC FREE :   0.941
REMARK   3
REMARK   3  RMS DEVIATIONS FROM IDEAL VALUES        COUNT    RMS    WEIGHT
REMARK   3   BOND LENGTHS REFINED ATOMS        (A):  3046 ; 0.024 ; 0.014
REMARK   3   BOND LENGTHS OTHERS               (A):  2153 ; 0.014 ; 0.015
REMARK   3   BOND ANGLES REFINED ATOMS   (DEGREES):  3243 ; 2.128 ; 1.633
REMARK   3   BOND ANGLES OTHERS          (DEGREES):  4957 ; 1.590 ; 1.582
REMARK   3   TORSION ANGLES, PERIOD 1    (DEGREES):   313 ; 9.094 ; 5.000
REMARK   3   TORSION ANGLES, PERIOD 2    (DEGREES):   104 ;30.447 ;23.077
REMARK   3   TORSION ANGLES, PERIOD 3    (DEGREES):   346 ;15.576 ;15.000
REMARK   3   TORSION ANGLES, PERIOD 4    (DEGREES):    10 ;18.382 ;15.000
REMARK   3   CHIRAL-CENTER RESTRAINTS       (A**3):   282 ; 0.085 ; 0.200
REMARK   3   GENERAL PLANES REFINED ATOMS      (A):  2835 ; 0.014 ; 0.020
REMARK   3   GENERAL PLANES OTHERS             (A):   559 ; 0.003 ; 0.020
REMARK   3
REMARK   3  ISOTROPIC THERMAL FACTOR RESTRAINTS.     COUNT   RMS    WEIGHT
REMARK   3   MAIN-CHAIN BOND REFINED ATOMS  (A**2):  1505 ; 0.995 ; 1.579
REMARK   3   MAIN-CHAIN BOND OTHER ATOMS    (A**2):  1467 ; 1.000 ; 1.435
REMARK   3   MAIN-CHAIN ANGLE REFINED ATOMS (A**2):  1509 ; 1.974 ; 2.178
REMARK   3   MAIN-CHAIN ANGLE OTHER ATOMS (A**2)  :  1510 ; 1.973 ; 2.181
REMARK   3   SIDE-CHAIN BOND REFINED ATOMS  (A**2):  1541 ; 1.165 ; 1.863
REMARK   3   SIDE-CHAIN BOND OTHER ATOMS  (A**2)  :  1542 ; 1.165 ; 1.869
REMARK   3   SIDE-CHAIN ANGLE OTHER ATOMS (A**2)  :  1735 ; 2.075 ; 2.629
REMARK   3   LONG RANGE B REFINED ATOMS (A**2)    :  2611 ;17.205 ;17.483
REMARK   3   LONG RANGE B OTHER ATOMS (A**2)      :  2606 ;17.184 ;17.399
REMARK   3
REMARK   3  NCS RESTRAINTS STATISTICS
REMARK   3   NUMBER OF NCS GROUPS : NULL
REMARK   3
REMARK   3  TWIN DETAILS
REMARK   3   NUMBER OF TWIN DOMAINS  : NULL
REMARK   3
REMARK   3
REMARK   3  TLS DETAILS
REMARK   3   NUMBER OF TLS GROUPS  :    2
REMARK   3   ATOM RECORD CONTAINS SUM OF TLS AND RESIDUAL B FACTORS
REMARK   3
REMARK   3   TLS GROUP :     1
REMARK   3    NUMBER OF COMPONENTS GROUP :    1
REMARK   3    COMPONENTS        C SSSEQI   TO  C SSSEQI
REMARK   3    RESIDUE RANGE :   A    50        A    88
REMARK   3    ORIGIN FOR THE GROUP (A): -13.3801  -1.8854 -19.2893
REMARK   3    T TENSOR
REMARK   3      T11:   0.4230 T22:   0.4255
REMARK   3      T33:   0.0846 T12:   0.1674
REMARK   3      T13:   0.0699 T23:   0.0852
REMARK   3    L TENSOR
REMARK   3      L11:   1.8809 L22:   1.4773
REMARK   3      L33:   0.7171 L12:  -0.5370
REMARK   3      L13:  -0.6398 L23:   0.0341
REMARK   3    S TENSOR
REMARK   3      S11:   0.2975 S12:   0.2728 S13:   0.3220
REMARK   3      S21:  -0.2089 S22:  -0.2771 S23:  -0.2514
REMARK   3      S31:   0.0060 S32:   0.1488 S33:  -0.0204
REMARK   3
REMARK   3   TLS GROUP :     2
REMARK   3    NUMBER OF COMPONENTS GROUP :    1
REMARK   3    COMPONENTS        C SSSEQI   TO  C SSSEQI
REMARK   3    RESIDUE RANGE :   B    16        B   304
REMARK   3    ORIGIN FOR THE GROUP (A): -18.7864   0.9877 -15.8786
REMARK   3    T TENSOR
REMARK   3      T11:   0.4266 T22:   0.4060
REMARK   3      T33:   0.0853 T12:   0.1161
REMARK   3      T13:   0.0355 T23:  -0.0032
REMARK   3    L TENSOR
REMARK   3      L11:   1.1770 L22:   0.2210
REMARK   3      L33:   0.4597 L12:  -0.2521
REMARK   3      L13:  -0.0410 L23:   0.0819
REMARK   3    S TENSOR
REMARK   3      S11:   0.2171 S12:   0.1222 S13:   0.1532
REMARK   3      S21:  -0.0785 S22:  -0.2015 S23:   0.0426
REMARK   3      S31:   0.0790 S32:   0.0530 S33:  -0.0155
REMARK   3
REMARK   3
REMARK   3  BULK SOLVENT MODELLING.
REMARK   3   METHOD USED :  MASK
REMARK   3   PARAMETERS FOR MASK CALCULATION
REMARK   3   VDW PROBE RADIUS   :   1.20
REMARK   3   ION PROBE RADIUS   :   0.80
REMARK   3   SHRINKAGE RADIUS   :   0.80
REMARK   3
REMARK   3  OTHER REFINEMENT REMARKS:
REMARK   3  HYDROGENS HAVE BEEN ADDED IN THE RIDING POSITIONS
REMARK   3  U VALUES      : WITH TLS ADDED
REMARK   3
CRYST1   42.514   42.514  216.443  90.00  90.00  90.00 P 43 2 2                 


$$$$
Zx1274a_ligand
  PyMOL3.0          3D                             0

 21 23  0  0  0  0  0  0  0  0999 V2000
   -8.4360    6.7720  -11.7140 C   0  0  0  0  0  0  0  0  0  0  0  0
   -8.5340    4.0580   -9.1020 N   0  0  0  0  0  0  0  0  0  0  0  0
   -6.5420    5.3290  -13.7000 O   0  0  0  0  0  0  0  0  0  0  0  0
   -4.0620    4.9710  -18.2970 S   0  0  0  0  0  0  0  0  0  0  0  0
   -8.4840    5.3920  -11.1020 C   0  0  0  0  0  0  0  0  0  0  0  0
   -8.5230    4.3120  -13.3250 N   0  0  0  0  0  0  0  0  0  0  0  0
   -8.4880    5.2520   -9.7230 C   0  0  0  0  0  0  0  0  0  0  0  0
   -5.8420    4.8670  -20.1430 N   0  0  0  0  0  0  0  0  0  0  0  0
   -8.5690    2.9700   -9.8760 C   0  0  0  0  0  0  0  0  0  0  0  0
   -8.5630    3.0060  -11.2440 C   0  0  0  0  0  0  0  0  0  0  0  0
   -8.5120    4.2340  -11.8880 C   0  0  0  0  0  0  0  0  0  0  0  0
   -7.5460    4.7800  -14.1460 C   0  0  0  0  0  0  0  0  0  0  0  0
   -7.7280    4.5910  -15.6310 C   0  0  0  0  0  0  0  0  0  0  0  0
   -8.9580    4.1980  -16.1590 C   0  0  0  0  0  0  0  0  0  0  0  0
   -9.1240    4.0210  -17.5200 C   0  0  0  0  0  0  0  0  0  0  0  0
   -8.0670    4.2320  -18.3850 C   0  0  0  0  0  0  0  0  0  0  0  0
   -6.8260    4.6320  -17.8970 C   0  0  0  0  0  0  0  0  0  0  0  0
   -5.7090    4.8310  -18.8330 C   0  0  0  0  0  0  0  0  0  0  0  0
   -4.6140    4.9160  -20.7450 C   0  0  0  0  0  0  0  0  0  0  0  0
   -3.5870    5.1590  -19.9280 C   0  0  0  0  0  0  0  0  0  0  0  0
   -6.6660    4.8000  -16.5150 C   0  0  0  0  0  0  0  0  0  0  0  0
  1  5  1  0  0  0  0
  2  9  4  0  0  0  0
  5  7  4  0  0  0  0
  5 11  4  0  0  0  0
  6 12  1  0  0  0  0
  2  7  4  0  0  0  0
  8 19  4  0  0  0  0
  9 10  4  0  0  0  0
 10 11  4  0  0  0  0
  6 11  1  0  0  0  0
  3 12  2  0  0  0  0
 12 13  1  0  0  0  0
 13 14  4  0  0  0  0
 13 21  4  0  0  0  0
 14 15  4  0  0  0  0
 15 16  4  0  0  0  0
 16 17  4  0  0  0  0
 17 18  1  0  0  0  0
 17 21  4  0  0  0  0
  4 18  4  0  0  0  0
  8 18  4  0  0  0  0
 19 20  4  0  0  0  0
  4 20  4  0  0  0  0
M  END
>  <pdb_header>
COMPND    XX01ZVNS2B-x1274_B_301_XX01ZVNS2B-x1291+B+301+1


$$$$
Zx1288a
  PyMOL3.0          3D                             0

 23 25  0  0  0  0  0  0  0  0999 V2000
   -3.7310    8.6100  -17.7510 C   0  0  0  0  0  0  0  0  0  0  0  0
   -8.5080    4.2660  -13.7590 N   0  0  0  0  0  0  0  0  0  0  0  0
   -7.8110    6.3380  -14.3520 O   0  0  0  0  0  0  0  0  0  0  0  0
   -4.2620    7.3660  -17.0800 C   0  0  0  0  0  0  0  0  0  0  0  0
   -8.6010    3.9690  -10.1610 N   0  0  0  0  0  0  0  0  0  0  0  0
   -5.5070    6.8440  -17.4090 C   0  0  0  0  0  0  0  0  0  0  0  0
   -8.3590    5.3070  -10.3340 N   0  0  0  0  0  0  0  0  0  0  0  0
   -5.9870    5.7030  -16.7590 C   0  0  0  0  0  0  0  0  0  0  0  0
   -3.9260    5.6160  -15.4830 N   0  0  0  0  0  0  0  0  0  0  0  0
   -7.3150    5.0970  -17.0960 C   0  0  0  0  0  0  0  0  0  0  0  0
   -7.5610    4.6970  -18.4140 C   0  0  0  0  0  0  0  0  0  0  0  0
   -8.7530    4.1020  -18.7820 C   0  0  0  0  0  0  0  0  0  0  0  0
   -9.7270    3.8750  -17.8380 C   0  0  0  0  0  0  0  0  0  0  0  0
   -9.5120    4.2410  -16.5240 C   0  0  0  0  0  0  0  0  0  0  0  0
   -8.3120    4.8450  -16.1320 C   0  0  0  0  0  0  0  0  0  0  0  0
   -8.1820    5.2210  -14.6790 C   0  0  0  0  0  0  0  0  0  0  0  0
   -8.4890    4.4580  -12.3630 C   0  0  0  0  0  0  0  0  0  0  0  0
   -8.6790    3.4740  -11.3860 C   0  0  0  0  0  0  0  0  0  0  0  0
   -8.2220    6.1700   -9.1620 C   0  0  0  0  0  0  0  0  0  0  0  0
   -8.2870    5.6400  -11.6450 C   0  0  0  0  0  0  0  0  0  0  0  0
   -5.1340    5.1290  -15.8160 C   0  0  0  0  0  0  0  0  0  0  0  0
   -3.5300    6.6880  -16.1070 C   0  0  0  0  0  0  0  0  0  0  0  0
   -2.3170    7.1550  -15.7540 F   0  0  0  0  0  0  0  0  0  0  0  0
  1  4  1  0  0  0  0
  4  6  4  0  0  0  0
  5  7  4  0  0  0  0
  6  8  4  0  0  0  0
  8 10  1  0  0  0  0
 10 11  4  0  0  0  0
 11 12  4  0  0  0  0
 12 13  4  0  0  0  0
 13 14  4  0  0  0  0
 10 15  4  0  0  0  0
 14 15  4  0  0  0  0
 15 16  1  0  0  0  0
  2 16  1  0  0  0  0
  3 16  2  0  0  0  0
  2 17  1  0  0  0  0
 17 18  4  0  0  0  0
 17 20  4  0  0  0  0
  5 18  4  0  0  0  0
  7 19  1  0  0  0  0
  7 20  4  0  0  0  0
  8 21  4  0  0  0  0
  9 21  4  0  0  0  0
  4 22  4  0  0  0  0
  9 22  4  0  0  0  0
 22 23  1  0  0  0  0
M  END
>  <pdb_header>
HEADER    ----                                    07-NOV-23   XXXX              
TITLE     ---                                                                   
REMARK   3
REMARK   3 REFINEMENT.
REMARK   3   PROGRAM     : REFMAC 5.8.0267   
REMARK   3   AUTHORS     : MURSHUDOV,SKUBAK,LEBEDEV,PANNU,
REMARK   3                 STEINER,NICHOLLS,WINN,LONG,VAGIN
REMARK   3
REMARK   3    REFINEMENT TARGET : MAXIMUM LIKELIHOOD
REMARK   3
REMARK   3  DATA USED IN REFINEMENT.
REMARK   3   RESOLUTION RANGE HIGH (ANGSTROMS) :   1.48
REMARK   3   RESOLUTION RANGE LOW  (ANGSTROMS) :  54.10
REMARK   3   DATA CUTOFF            (SIGMA(F)) : NONE
REMARK   3   COMPLETENESS FOR RANGE        (%) :  89.12
REMARK   3   NUMBER OF REFLECTIONS             :   29154
REMARK   3
REMARK   3  FIT TO DATA USED IN REFINEMENT.
REMARK   3   CROSS-VALIDATION METHOD          : THROUGHOUT
REMARK   3   FREE R VALUE TEST SET SELECTION  : RANDOM
REMARK   3   R VALUE     (WORKING + TEST SET) : 0.24049
REMARK   3   R VALUE            (WORKING SET) :  0.23826
REMARK   3   FREE R VALUE                     :  0.28299
REMARK   3   FREE R VALUE TEST SET SIZE   (%) :  5.0
REMARK   3   FREE R VALUE TEST SET COUNT      :  1550
REMARK   3
REMARK   3  FIT IN THE HIGHEST RESOLUTION BIN.
REMARK   3   TOTAL NUMBER OF BINS USED           :      20
REMARK   3   BIN RESOLUTION RANGE HIGH           :    1.481
REMARK   3   BIN RESOLUTION RANGE LOW            :    1.520
REMARK   3   REFLECTION IN BIN     (WORKING SET) :      303
REMARK   3   BIN COMPLETENESS (WORKING+TEST) (%) :    12.75
REMARK   3   BIN R VALUE           (WORKING SET) :    0.660
REMARK   3   BIN FREE R VALUE SET COUNT          :       15
REMARK   3   BIN FREE R VALUE                    :    0.668
REMARK   3
REMARK   3  NUMBER OF NON-HYDROGEN ATOMS USED IN REFINEMENT.
REMARK   3   ALL ATOMS                :     1952
REMARK   3
REMARK   3  B VALUES.
REMARK   3   FROM WILSON PLOT           (A**2) : NULL
REMARK   3   MEAN B VALUE      (OVERALL, A**2) :  47.451
REMARK   3   OVERALL ANISOTROPIC B VALUE.
REMARK   3    B11 (A**2) :    -0.20
REMARK   3    B22 (A**2) :    -0.20
REMARK   3    B33 (A**2) :     0.39
REMARK   3    B12 (A**2) :     0.00
REMARK   3    B13 (A**2) :     0.00
REMARK   3    B23 (A**2) :     0.00
REMARK   3
REMARK   3  ESTIMATED OVERALL COORDINATE ERROR.
REMARK   3   ESU BASED ON R VALUE                            (A):   0.113
REMARK   3   ESU BASED ON FREE R VALUE                       (A):   0.115
REMARK   3   ESU BASED ON MAXIMUM LIKELIHOOD                 (A):   0.209
REMARK   3   ESU FOR B VALUES BASED ON MAXIMUM LIKELIHOOD (A**2):  14.904
REMARK   3
REMARK   3 CORRELATION COEFFICIENTS.
REMARK   3   CORRELATION COEFFICIENT FO-FC      :   0.963
REMARK   3   CORRELATION COEFFICIENT FO-FC FREE :   0.950
REMARK   3
REMARK   3  RMS DEVIATIONS FROM IDEAL VALUES        COUNT    RMS    WEIGHT
REMARK   3   BOND LENGTHS REFINED ATOMS        (A):  2110 ; 0.020 ; 0.014
REMARK   3   BOND LENGTHS OTHERS               (A):  1707 ; 0.008 ; 0.015
REMARK   3   BOND ANGLES REFINED ATOMS   (DEGREES):  2579 ; 1.921 ; 1.640
REMARK   3   BOND ANGLES OTHERS          (DEGREES):  3939 ; 1.430 ; 1.590
REMARK   3   TORSION ANGLES, PERIOD 1    (DEGREES):   250 ; 7.695 ; 5.000
REMARK   3   TORSION ANGLES, PERIOD 2    (DEGREES):    86 ;33.041 ;22.674
REMARK   3   TORSION ANGLES, PERIOD 3    (DEGREES):   286 ;14.826 ;15.000
REMARK   3   TORSION ANGLES, PERIOD 4    (DEGREES):    10 ;20.757 ;15.000
REMARK   3   CHIRAL-CENTER RESTRAINTS       (A**3):   222 ; 0.088 ; 0.200
REMARK   3   GENERAL PLANES REFINED ATOMS      (A):  2261 ; 0.012 ; 0.020
REMARK   3   GENERAL PLANES OTHERS             (A):   443 ; 0.005 ; 0.020
REMARK   3
REMARK   3  ISOTROPIC THERMAL FACTOR RESTRAINTS.     COUNT   RMS    WEIGHT
REMARK   3   MAIN-CHAIN BOND REFINED ATOMS  (A**2):  1051 ; 1.395 ; 2.107
REMARK   3   MAIN-CHAIN BOND OTHER ATOMS    (A**2):  1013 ; 1.416 ; 1.919
REMARK   3   MAIN-CHAIN ANGLE REFINED ATOMS (A**2):  1206 ; 2.533 ; 2.837
REMARK   3   MAIN-CHAIN ANGLE OTHER ATOMS (A**2)  :  1207 ; 2.532 ; 2.841
REMARK   3   SIDE-CHAIN BOND REFINED ATOMS  (A**2):  1059 ; 1.662 ; 2.691
REMARK   3   SIDE-CHAIN BOND OTHER ATOMS  (A**2)  :  1040 ; 1.670 ; 2.633
REMARK   3   SIDE-CHAIN ANGLE OTHER ATOMS (A**2)  :  1362 ; 2.743 ; 3.470
REMARK   3   LONG RANGE B REFINED ATOMS (A**2)    :  2090 ;22.932 ;23.200
REMARK   3   LONG RANGE B OTHER ATOMS (A**2)      :  2076 ;22.970 ;22.806
REMARK   3
REMARK   3  NCS RESTRAINTS STATISTICS
REMARK   3   NUMBER OF NCS GROUPS : NULL
REMARK   3
REMARK   3  TWIN DETAILS
REMARK   3   NUMBER OF TWIN DOMAINS  : NULL
REMARK   3
REMARK   3
REMARK   3  TLS DETAILS
REMARK   3   NUMBER OF TLS GROUPS  :    2
REMARK   3   ATOM RECORD CONTAINS SUM OF TLS AND RESIDUAL B FACTORS
REMARK   3
REMARK   3   TLS GROUP :     1
REMARK   3    NUMBER OF COMPONENTS GROUP :    1
REMARK   3    COMPONENTS        C SSSEQI   TO  C SSSEQI
REMARK   3    RESIDUE RANGE :   A    50        A    88
REMARK   3    ORIGIN FOR THE GROUP (A): -13.5352  -1.7479 -19.3335
REMARK   3    T TENSOR
REMARK   3      T11:   0.3795 T22:   0.3838
REMARK   3      T33:   0.0515 T12:   0.1542
REMARK   3      T13:   0.0768 T23:   0.0740
REMARK   3    L TENSOR
REMARK   3      L11:   2.0643 L22:   2.0817
REMARK   3      L33:   1.2804 L12:  -1.1457
REMARK   3      L13:   0.0392 L23:   0.3585
REMARK   3    S TENSOR
REMARK   3      S11:   0.3839 S12:   0.3252 S13:   0.3006
REMARK   3      S21:  -0.3542 S22:  -0.3489 S23:  -0.2599
REMARK   3      S31:   0.0233 S32:   0.1922 S33:  -0.0349
REMARK   3
REMARK   3   TLS GROUP :     2
REMARK   3    NUMBER OF COMPONENTS GROUP :    1
REMARK   3    COMPONENTS        C SSSEQI   TO  C SSSEQI
REMARK   3    RESIDUE RANGE :   B    16        B   302
REMARK   3    ORIGIN FOR THE GROUP (A): -18.3017   0.9526 -15.8552
REMARK   3    T TENSOR
REMARK   3      T11:   0.4201 T22:   0.4024
REMARK   3      T33:   0.0668 T12:   0.1382
REMARK   3      T13:   0.0467 T23:   0.0163
REMARK   3    L TENSOR
REMARK   3      L11:   0.7093 L22:   0.5614
REMARK   3      L33:   0.6249 L12:  -0.3233
REMARK   3      L13:   0.4614 L23:   0.0215
REMARK   3    S TENSOR
REMARK   3      S11:   0.2599 S12:   0.1742 S13:   0.0915
REMARK   3      S21:  -0.1433 S22:  -0.2794 S23:   0.0224
REMARK   3      S31:   0.1240 S32:   0.1041 S33:   0.0194
REMARK   3
REMARK   3
REMARK   3  BULK SOLVENT MODELLING.
REMARK   3   METHOD USED :  MASK
REMARK   3   PARAMETERS FOR MASK CALCULATION
REMARK   3   VDW PROBE RADIUS   :   1.20
REMARK   3   ION PROBE RADIUS   :   0.80
REMARK   3   SHRINKAGE RADIUS   :   0.80
REMARK   3
REMARK   3  OTHER REFINEMENT REMARKS:
REMARK   3  HYDROGENS HAVE BEEN ADDED IN THE RIDING POSITIONS
REMARK   3  U VALUES      : WITH TLS ADDED
REMARK   3
CRYST1   42.503   42.503  216.415  90.00  90.00  90.00 P 43 2 2                 


$$$$
Zx1288a_ligand
  PyMOL3.0          3D                             0

 23 25  0  0  0  0  0  0  0  0999 V2000
   -3.7310    8.6100  -17.7510 C   0  0  0  0  0  0  0  0  0  0  0  0
   -8.5080    4.2660  -13.7590 N   0  0  0  0  0  0  0  0  0  0  0  0
   -7.8110    6.3380  -14.3520 O   0  0  0  0  0  0  0  0  0  0  0  0
   -4.2620    7.3660  -17.0800 C   0  0  0  0  0  0  0  0  0  0  0  0
   -8.6010    3.9690  -10.1610 N   0  0  0  0  0  0  0  0  0  0  0  0
   -5.5070    6.8440  -17.4090 C   0  0  0  0  0  0  0  0  0  0  0  0
   -8.3590    5.3070  -10.3340 N   0  0  0  0  0  0  0  0  0  0  0  0
   -5.9870    5.7030  -16.7590 C   0  0  0  0  0  0  0  0  0  0  0  0
   -3.9260    5.6160  -15.4830 N   0  0  0  0  0  0  0  0  0  0  0  0
   -7.3150    5.0970  -17.0960 C   0  0  0  0  0  0  0  0  0  0  0  0
   -7.5610    4.6970  -18.4140 C   0  0  0  0  0  0  0  0  0  0  0  0
   -8.7530    4.1020  -18.7820 C   0  0  0  0  0  0  0  0  0  0  0  0
   -9.7270    3.8750  -17.8380 C   0  0  0  0  0  0  0  0  0  0  0  0
   -9.5120    4.2410  -16.5240 C   0  0  0  0  0  0  0  0  0  0  0  0
   -8.3120    4.8450  -16.1320 C   0  0  0  0  0  0  0  0  0  0  0  0
   -8.1820    5.2210  -14.6790 C   0  0  0  0  0  0  0  0  0  0  0  0
   -8.4890    4.4580  -12.3630 C   0  0  0  0  0  0  0  0  0  0  0  0
   -8.6790    3.4740  -11.3860 C   0  0  0  0  0  0  0  0  0  0  0  0
   -8.2220    6.1700   -9.1620 C   0  0  0  0  0  0  0  0  0  0  0  0
   -8.2870    5.6400  -11.6450 C   0  0  0  0  0  0  0  0  0  0  0  0
   -5.1340    5.1290  -15.8160 C   0  0  0  0  0  0  0  0  0  0  0  0
   -3.5300    6.6880  -16.1070 C   0  0  0  0  0  0  0  0  0  0  0  0
   -2.3170    7.1550  -15.7540 F   0  0  0  0  0  0  0  0  0  0  0  0
  1  4  1  0  0  0  0
  2 17  1  0  0  0  0
  4  6  4  0  0  0  0
  4 22  4  0  0  0  0
  5  7  4  0  0  0  0
  6  8  4  0  0  0  0
  7 19  1  0  0  0  0
  7 20  4  0  0  0  0
  8 10  1  0  0  0  0
  8 21  4  0  0  0  0
  9 22  4  0  0  0  0
 10 11  4  0  0  0  0
 10 15  4  0  0  0  0
 11 12  4  0  0  0  0
 12 13  4  0  0  0  0
 13 14  4  0  0  0  0
 14 15  4  0  0  0  0
 15 16  1  0  0  0  0
  2 16  1  0  0  0  0
  3 16  2  0  0  0  0
 17 18  4  0  0  0  0
 17 20  4  0  0  0  0
  5 18  4  0  0  0  0
  9 21  4  0  0  0  0
 22 23  1  0  0  0  0
M  END
>  <pdb_header>
COMPND    XX01ZVNS2B-x1288_B_301_XX01ZVNS2B-x1291+B+301+1


$$$$
Zx1291a
  PyMOL3.0          3D                             0

 26 27  0  0  0  0  0  0  0  0999 V2000
   -9.4710    1.6670   -7.5760 C   0  0  0  0  0  0  0  0  0  0  0  0
   -8.8440    2.3050   -8.7350 N   0  0  0  0  0  0  0  0  0  0  0  0
   -5.1390    6.0420  -18.0900 O   0  0  0  0  0  0  0  0  0  0  0  0
   -8.2160    6.0930  -10.0530 S   0  0  0  0  0  0  0  0  0  0  0  0
   -7.4210    1.9840   -8.8060 C   0  0  0  0  0  0  0  0  0  0  0  0
   -8.5670    3.8140  -11.1390 N   0  0  0  0  0  0  0  0  0  0  0  0
   -5.6120    8.0150  -21.1240 O   0  0  0  0  0  0  0  0  0  0  0  0
   -9.0550    3.7540   -8.7120 C   0  0  0  0  0  0  0  0  0  0  0  0
   -8.6460    5.1970  -14.5660 N   0  0  0  0  0  0  0  0  0  0  0  0
   -8.6270    4.4160   -9.9850 C   0  0  0  0  0  0  0  0  0  0  0  0
   -5.9660    5.2940  -20.0430 N   0  0  0  0  0  0  0  0  0  0  0  0
   -8.3600    4.7170  -12.1760 C   0  0  0  0  0  0  0  0  0  0  0  0
   -8.2890    4.2010  -13.5780 C   0  0  0  0  0  0  0  0  0  0  0  0
   -8.5500    4.9680  -15.9330 C   0  0  0  0  0  0  0  0  0  0  0  0
   -9.6100    4.3650  -16.5970 C   0  0  0  0  0  0  0  0  0  0  0  0
   -9.5150    4.1560  -17.9570 C   0  0  0  0  0  0  0  0  0  0  0  0
   -8.3920    4.5110  -18.6660 C   0  0  0  0  0  0  0  0  0  0  0  0
   -7.3210    5.1170  -18.0170 C   0  0  0  0  0  0  0  0  0  0  0  0
   -6.0560    5.5260  -18.7260 C   0  0  0  0  0  0  0  0  0  0  0  0
   -4.8380    5.6900  -20.9470 C   0  0  0  0  0  0  0  0  0  0  0  0
   -5.2580    5.4360  -22.3970 C   0  0  0  0  0  0  0  0  0  0  0  0
   -3.5910    4.8690  -20.6130 C   0  0  0  0  0  0  0  0  0  0  0  0
   -4.5110    7.1790  -20.8150 C   0  0  0  0  0  0  0  0  0  0  0  0
   -7.4060    5.3370  -16.6420 C   0  0  0  0  0  0  0  0  0  0  0  0
   -8.2120    6.0010  -11.7690 C   0  0  0  0  0  0  0  0  0  0  0  0
  -10.8600    3.4140  -18.7760 Cl  0  0  0  0  0  0  0  0  0  0  0  0
  1  2  1  0  0  0  0
  2  5  1  0  0  0  0
  2  8  1  0  0  0  0
  8 10  1  0  0  0  0
  4 10  4  0  0  0  0
  6 10  4  0  0  0  0
  6 12  4  0  0  0  0
 12 13  1  0  0  0  0
  9 13  1  0  0  0  0
  9 14  1  0  0  0  0
 14 15  4  0  0  0  0
 15 16  4  0  0  0  0
 16 26  1  0  0  0  0
 16 17  4  0  0  0  0
 17 18  4  0  0  0  0
 18 19  1  0  0  0  0
 18 24  4  0  0  0  0
  3 19  2  0  0  0  0
 11 19  1  0  0  0  0
 11 20  1  0  0  0  0
 20 21  1  0  0  0  0
 20 22  1  0  0  0  0
 20 23  1  0  0  0  0
  7 23  1  0  0  0  0
 14 24  4  0  0  0  0
  4 25  4  0  0  0  0
 12 25  4  0  0  0  0
M  END
>  <pdb_header>
HEADER    ----                                    05-DEC-23   XXXX              
TITLE     ---                                                                   
REMARK   3
REMARK   3 REFINEMENT.
REMARK   3   PROGRAM     : REFMAC 5.8.0267   
REMARK   3   AUTHORS     : MURSHUDOV,SKUBAK,LEBEDEV,PANNU,
REMARK   3                 STEINER,NICHOLLS,WINN,LONG,VAGIN
REMARK   3
REMARK   3    REFINEMENT TARGET : MAXIMUM LIKELIHOOD
REMARK   3
REMARK   3  DATA USED IN REFINEMENT.
REMARK   3   RESOLUTION RANGE HIGH (ANGSTROMS) :   1.69
REMARK   3   RESOLUTION RANGE LOW  (ANGSTROMS) :  54.11
REMARK   3   DATA CUTOFF            (SIGMA(F)) : NONE
REMARK   3   COMPLETENESS FOR RANGE        (%) :  84.89
REMARK   3   NUMBER OF REFLECTIONS             :   18908
REMARK   3
REMARK   3  FIT TO DATA USED IN REFINEMENT.
REMARK   3   CROSS-VALIDATION METHOD          : THROUGHOUT
REMARK   3   FREE R VALUE TEST SET SELECTION  : RANDOM
REMARK   3   R VALUE     (WORKING + TEST SET) : 0.23125
REMARK   3   R VALUE            (WORKING SET) :  0.22889
REMARK   3   FREE R VALUE                     :  0.27565
REMARK   3   FREE R VALUE TEST SET SIZE   (%) :  5.0
REMARK   3   FREE R VALUE TEST SET COUNT      :   997
REMARK   3
REMARK   3  FIT IN THE HIGHEST RESOLUTION BIN.
REMARK   3   TOTAL NUMBER OF BINS USED           :      20
REMARK   3   BIN RESOLUTION RANGE HIGH           :    1.690
REMARK   3   BIN RESOLUTION RANGE LOW            :    1.734
REMARK   3   REFLECTION IN BIN     (WORKING SET) :      151
REMARK   3   BIN COMPLETENESS (WORKING+TEST) (%) :     9.28
REMARK   3   BIN R VALUE           (WORKING SET) :    0.606
REMARK   3   BIN FREE R VALUE SET COUNT          :        4
REMARK   3   BIN FREE R VALUE                    :    0.856
REMARK   3
REMARK   3  NUMBER OF NON-HYDROGEN ATOMS USED IN REFINEMENT.
REMARK   3   ALL ATOMS                :     2001
REMARK   3
REMARK   3  B VALUES.
REMARK   3   FROM WILSON PLOT           (A**2) : NULL
REMARK   3   MEAN B VALUE      (OVERALL, A**2) :  53.248
REMARK   3   OVERALL ANISOTROPIC B VALUE.
REMARK   3    B11 (A**2) :     2.52
REMARK   3    B22 (A**2) :     2.52
REMARK   3    B33 (A**2) :    -5.04
REMARK   3    B12 (A**2) :    -0.00
REMARK   3    B13 (A**2) :    -0.00
REMARK   3    B23 (A**2) :    -0.00
REMARK   3
REMARK   3  ESTIMATED OVERALL COORDINATE ERROR.
REMARK   3   ESU BASED ON R VALUE                            (A):   0.178
REMARK   3   ESU BASED ON FREE R VALUE                       (A):   0.163
REMARK   3   ESU BASED ON MAXIMUM LIKELIHOOD                 (A):   0.254
REMARK   3   ESU FOR B VALUES BASED ON MAXIMUM LIKELIHOOD (A**2):  19.676
REMARK   3
REMARK   3 CORRELATION COEFFICIENTS.
REMARK   3   CORRELATION COEFFICIENT FO-FC      :   0.962
REMARK   3   CORRELATION COEFFICIENT FO-FC FREE :   0.945
REMARK   3
REMARK   3  RMS DEVIATIONS FROM IDEAL VALUES        COUNT    RMS    WEIGHT
REMARK   3   BOND LENGTHS REFINED ATOMS        (A):  2199 ; 0.011 ; 0.014
REMARK   3   BOND LENGTHS OTHERS               (A):  1827 ; 0.002 ; 0.015
REMARK   3   BOND ANGLES REFINED ATOMS   (DEGREES):  2672 ; 1.629 ; 1.637
REMARK   3   BOND ANGLES OTHERS          (DEGREES):  4206 ; 1.238 ; 1.583
REMARK   3   TORSION ANGLES, PERIOD 1    (DEGREES):   256 ; 8.302 ; 5.000
REMARK   3   TORSION ANGLES, PERIOD 2    (DEGREES):    87 ;33.737 ;21.839
REMARK   3   TORSION ANGLES, PERIOD 3    (DEGREES):   301 ;17.481 ;15.000
REMARK   3   TORSION ANGLES, PERIOD 4    (DEGREES):    10 ;18.912 ;15.000
REMARK   3   CHIRAL-CENTER RESTRAINTS       (A**3):   241 ; 0.066 ; 0.200
REMARK   3   GENERAL PLANES REFINED ATOMS      (A):  2289 ; 0.008 ; 0.020
REMARK   3   GENERAL PLANES OTHERS             (A):   443 ; 0.002 ; 0.020
REMARK   3
REMARK   3  ISOTROPIC THERMAL FACTOR RESTRAINTS.     COUNT   RMS    WEIGHT
REMARK   3   MAIN-CHAIN BOND REFINED ATOMS  (A**2):  1077 ; 1.603 ; 2.528
REMARK   3   MAIN-CHAIN BOND OTHER ATOMS    (A**2):  1053 ; 1.617 ; 2.464
REMARK   3   MAIN-CHAIN ANGLE REFINED ATOMS (A**2):  1236 ; 2.910 ; 3.651
REMARK   3   MAIN-CHAIN ANGLE OTHER ATOMS (A**2)  :  1237 ; 2.911 ; 3.656
REMARK   3   SIDE-CHAIN BOND REFINED ATOMS  (A**2):  1122 ; 1.726 ; 2.763
REMARK   3   SIDE-CHAIN BOND OTHER ATOMS  (A**2)  :  1110 ; 1.728 ; 2.719
REMARK   3   SIDE-CHAIN ANGLE OTHER ATOMS (A**2)  :  1425 ; 3.073 ; 3.942
REMARK   3   LONG RANGE B REFINED ATOMS (A**2)    :  2136 ; 8.584 ;29.082
REMARK   3   LONG RANGE B OTHER ATOMS (A**2)      :  2112 ; 8.485 ;28.499
REMARK   3
REMARK   3  NCS RESTRAINTS STATISTICS
REMARK   3   NUMBER OF NCS GROUPS : NULL
REMARK   3
REMARK   3  TWIN DETAILS
REMARK   3   NUMBER OF TWIN DOMAINS  : NULL
REMARK   3
REMARK   3
REMARK   3  TLS DETAILS
REMARK   3   NUMBER OF TLS GROUPS  :    2
REMARK   3   ATOM RECORD CONTAINS SUM OF TLS AND RESIDUAL B FACTORS
REMARK   3
REMARK   3   TLS GROUP :     1
REMARK   3    NUMBER OF COMPONENTS GROUP :    1
REMARK   3    COMPONENTS        C SSSEQI   TO  C SSSEQI
REMARK   3    RESIDUE RANGE :   A    50        A    88
REMARK   3    ORIGIN FOR THE GROUP (A): -13.2991  -2.1421 -19.2648
REMARK   3    T TENSOR
REMARK   3      T11:   0.2942 T22:   0.4015
REMARK   3      T33:   0.1396 T12:   0.1909
REMARK   3      T13:   0.1194 T23:   0.1422
REMARK   3    L TENSOR
REMARK   3      L11:   2.2503 L22:   2.5794
REMARK   3      L33:   1.2936 L12:  -0.4767
REMARK   3      L13:  -0.7560 L23:   0.2384
REMARK   3    S TENSOR
REMARK   3      S11:   0.6413 S12:   0.2891 S13:   0.3749
REMARK   3      S21:  -0.3812 S22:  -0.6082 S23:  -0.3319
REMARK   3      S31:  -0.2663 S32:   0.3208 S33:  -0.0331
REMARK   3
REMARK   3   TLS GROUP :     2
REMARK   3    NUMBER OF COMPONENTS GROUP :    1
REMARK   3    COMPONENTS        C SSSEQI   TO  C SSSEQI
REMARK   3    RESIDUE RANGE :   B    16        B   303
REMARK   3    ORIGIN FOR THE GROUP (A): -18.2830   0.5266 -15.8858
REMARK   3    T TENSOR
REMARK   3      T11:   0.3173 T22:   0.3015
REMARK   3      T33:   0.3682 T12:   0.1895
REMARK   3      T13:   0.1004 T23:   0.0013
REMARK   3    L TENSOR
REMARK   3      L11:   0.6137 L22:   0.4532
REMARK   3      L33:   1.0704 L12:  -0.4869
REMARK   3      L13:   0.5209 L23:  -0.5036
REMARK   3    S TENSOR
REMARK   3      S11:   0.3249 S12:   0.2116 S13:   0.1163
REMARK   3      S21:  -0.2508 S22:  -0.2609 S23:   0.0204
REMARK   3      S31:   0.1835 S32:   0.1943 S33:  -0.0640
REMARK   3
REMARK   3
REMARK   3  BULK SOLVENT MODELLING.
REMARK   3   METHOD USED :  MASK
REMARK   3   PARAMETERS FOR MASK CALCULATION
REMARK   3   VDW PROBE RADIUS   :   1.20
REMARK   3   ION PROBE RADIUS   :   0.80
REMARK   3   SHRINKAGE RADIUS   :   0.80
REMARK   3
REMARK   3  OTHER REFINEMENT REMARKS:
REMARK   3  HYDROGENS HAVE BEEN ADDED IN THE RIDING POSITIONS
REMARK   3  U VALUES      : WITH TLS ADDED
REMARK   3
CRYST1   42.508   42.508  216.455  90.00  90.00  90.00 P 43 2 2                 


$$$$
Zx1291a_ligand
  PyMOL3.0          3D                             0

 26 27  0  0  0  0  0  0  0  0999 V2000
  -10.8600    3.4140  -18.7760 Cl  0  0  0  0  0  0  0  0  0  0  0  0
   -9.4710    1.6670   -7.5760 C   0  0  0  0  0  0  0  0  0  0  0  0
   -8.8440    2.3050   -8.7350 N   0  0  0  0  0  0  0  0  0  0  0  0
   -5.1390    6.0420  -18.0900 O   0  0  0  0  0  0  0  0  0  0  0  0
   -8.2160    6.0930  -10.0530 S   0  0  0  0  0  0  0  0  0  0  0  0
   -7.4210    1.9840   -8.8060 C   0  0  0  0  0  0  0  0  0  0  0  0
   -8.5670    3.8140  -11.1390 N   0  0  0  0  0  0  0  0  0  0  0  0
   -5.6120    8.0150  -21.1240 O   0  0  0  0  0  0  0  0  0  0  0  0
   -9.0550    3.7540   -8.7120 C   0  0  0  0  0  0  0  0  0  0  0  0
   -8.6460    5.1970  -14.5660 N   0  0  0  0  0  0  0  0  0  0  0  0
   -8.6270    4.4160   -9.9850 C   0  0  0  0  0  0  0  0  0  0  0  0
   -5.9660    5.2940  -20.0430 N   0  0  0  0  0  0  0  0  0  0  0  0
   -8.3600    4.7170  -12.1760 C   0  0  0  0  0  0  0  0  0  0  0  0
   -8.2890    4.2010  -13.5780 C   0  0  0  0  0  0  0  0  0  0  0  0
   -8.5500    4.9680  -15.9330 C   0  0  0  0  0  0  0  0  0  0  0  0
   -9.6100    4.3650  -16.5970 C   0  0  0  0  0  0  0  0  0  0  0  0
   -9.5150    4.1560  -17.9570 C   0  0  0  0  0  0  0  0  0  0  0  0
   -8.3920    4.5110  -18.6660 C   0  0  0  0  0  0  0  0  0  0  0  0
   -7.3210    5.1170  -18.0170 C   0  0  0  0  0  0  0  0  0  0  0  0
   -6.0560    5.5260  -18.7260 C   0  0  0  0  0  0  0  0  0  0  0  0
   -4.8380    5.6900  -20.9470 C   0  0  0  0  0  0  0  0  0  0  0  0
   -5.2580    5.4360  -22.3970 C   0  0  0  0  0  0  0  0  0  0  0  0
   -3.5910    4.8690  -20.6130 C   0  0  0  0  0  0  0  0  0  0  0  0
   -4.5110    7.1790  -20.8150 C   0  0  0  0  0  0  0  0  0  0  0  0
   -7.4060    5.3370  -16.6420 C   0  0  0  0  0  0  0  0  0  0  0  0
   -8.2120    6.0010  -11.7690 C   0  0  0  0  0  0  0  0  0  0  0  0
  2  3  1  0  0  0  0
  3  6  1  0  0  0  0
  3  9  1  0  0  0  0
  7 13  4  0  0  0  0
  9 11  1  0  0  0  0
 10 15  1  0  0  0  0
  5 11  4  0  0  0  0
  7 11  4  0  0  0  0
 12 21  1  0  0  0  0
 13 14  1  0  0  0  0
 13 26  4  0  0  0  0
 10 14  1  0  0  0  0
 15 16  4  0  0  0  0
 15 25  4  0  0  0  0
 16 17  4  0  0  0  0
  1 17  1  0  0  0  0
 17 18  4  0  0  0  0
 18 19  4  0  0  0  0
 19 20  1  0  0  0  0
 19 25  4  0  0  0  0
  4 20  2  0  0  0  0
 12 20  1  0  0  0  0
 21 22  1  0  0  0  0
 21 23  1  0  0  0  0
 21 24  1  0  0  0  0
  8 24  1  0  0  0  0
  5 26  4  0  0  0  0
M  END
>  <pdb_header>
COMPND    XX01ZVNS2B-x1291_B_301_XX01ZVNS2B-x1291+B+301+1


$$$$
Zx1317a
  PyMOL3.0          3D                             0

 29 32  0  0  0  0  0  0  0  0999 V2000
   -7.6190    8.6940  -13.3350 C   0  0  0  0  0  0  0  0  0  0  0  0
   -8.7270    4.0590   -8.6680 N   0  0  0  0  0  0  0  0  0  0  0  0
   -9.8550    7.5870  -14.0880 O   0  0  0  0  0  0  0  0  0  0  0  0
   -9.2440    8.1790  -12.9300 S   0  0  0  0  0  0  0  0  0  0  0  0
   -9.0450    6.9120  -11.7160 C   0  0  0  0  0  0  0  0  0  0  0  0
   -9.4010    2.7100   -6.5930 N   0  0  0  0  0  0  0  0  0  0  0  0
   -9.9240    9.2800  -12.3100 O   0  0  0  0  0  0  0  0  0  0  0  0
   -9.1170    7.2920  -10.3830 C   0  0  0  0  0  0  0  0  0  0  0  0
   -8.7820    5.0980  -13.3590 N   0  0  0  0  0  0  0  0  0  0  0  0
   -6.7620    6.0040  -13.8300 O   0  0  0  0  0  0  0  0  0  0  0  0
   -8.9950    6.3520   -9.3820 C   0  0  0  0  0  0  0  0  0  0  0  0
   -5.9770    4.3690  -18.7530 N   0  0  0  0  0  0  0  0  0  0  0  0
   -8.8100    4.9990   -9.6860 C   0  0  0  0  0  0  0  0  0  0  0  0
   -7.7710    4.2710   -7.5770 C   0  0  0  0  0  0  0  0  0  0  0  0
   -8.2410    3.5550   -6.3250 C   0  0  0  0  0  0  0  0  0  0  0  0
   -9.1810    1.8340   -7.7360 C   0  0  0  0  0  0  0  0  0  0  0  0
   -8.8950    2.6390   -8.9920 C   0  0  0  0  0  0  0  0  0  0  0  0
   -8.7410    4.6090  -11.0230 C   0  0  0  0  0  0  0  0  0  0  0  0
   -8.8770    5.5560  -12.0300 C   0  0  0  0  0  0  0  0  0  0  0  0
   -7.7510    5.3790  -14.1890 C   0  0  0  0  0  0  0  0  0  0  0  0
   -7.9170    4.9510  -15.6190 C   0  0  0  0  0  0  0  0  0  0  0  0
   -9.1760    4.6960  -16.1020 C   0  0  0  0  0  0  0  0  0  0  0  0
   -9.3770    4.3280  -17.4460 C   0  0  0  0  0  0  0  0  0  0  0  0
   -8.3170    4.2310  -18.3020 C   0  0  0  0  0  0  0  0  0  0  0  0
   -7.0030    4.4940  -17.8510 C   0  0  0  0  0  0  0  0  0  0  0  0
   -4.7540    4.6150  -18.3190 C   0  0  0  0  0  0  0  0  0  0  0  0
   -4.4360    4.9880  -17.0000 C   0  0  0  0  0  0  0  0  0  0  0  0
   -5.4460    5.1100  -16.0910 C   0  0  0  0  0  0  0  0  0  0  0  0
   -6.7860    4.8580  -16.4910 C   0  0  0  0  0  0  0  0  0  0  0  0
  1  4  1  0  0  0  0
  3  4  2  0  0  0  0
  4  5  1  0  0  0  0
  5  8  4  0  0  0  0
  4  7  2  0  0  0  0
  8 11  4  0  0  0  0
 11 13  4  0  0  0  0
  2 13  1  0  0  0  0
  2 14  1  0  0  0  0
 14 15  1  0  0  0  0
  6 15  1  0  0  0  0
  6 16  1  0  0  0  0
 16 17  1  0  0  0  0
  2 17  1  0  0  0  0
 13 18  4  0  0  0  0
 18 19  4  0  0  0  0
  5 19  4  0  0  0  0
  9 19  1  0  0  0  0
  9 20  1  0  0  0  0
 10 20  2  0  0  0  0
 20 21  1  0  0  0  0
 21 22  4  0  0  0  0
 21 29  4  0  0  0  0
 22 23  4  0  0  0  0
 23 24  4  0  0  0  0
 24 25  4  0  0  0  0
 12 25  4  0  0  0  0
 25 29  4  0  0  0  0
 12 26  4  0  0  0  0
 26 27  4  0  0  0  0
 27 28  4  0  0  0  0
 28 29  4  0  0  0  0
M  END
>  <pdb_header>
HEADER    ----                                    07-NOV-23   XXXX              
TITLE     ---                                                                   
REMARK   3
REMARK   3 REFINEMENT.
REMARK   3   PROGRAM     : REFMAC 5.8.0267   
REMARK   3   AUTHORS     : MURSHUDOV,SKUBAK,LEBEDEV,PANNU,
REMARK   3                 STEINER,NICHOLLS,WINN,LONG,VAGIN
REMARK   3
REMARK   3    REFINEMENT TARGET : MAXIMUM LIKELIHOOD
REMARK   3
REMARK   3  DATA USED IN REFINEMENT.
REMARK   3   RESOLUTION RANGE HIGH (ANGSTROMS) :   1.45
REMARK   3   RESOLUTION RANGE LOW  (ANGSTROMS) :  54.01
REMARK   3   DATA CUTOFF            (SIGMA(F)) : NONE
REMARK   3   COMPLETENESS FOR RANGE        (%) :  91.19
REMARK   3   NUMBER OF REFLECTIONS             :   31849
REMARK   3
REMARK   3  FIT TO DATA USED IN REFINEMENT.
REMARK   3   CROSS-VALIDATION METHOD          : THROUGHOUT
REMARK   3   FREE R VALUE TEST SET SELECTION  : RANDOM
REMARK   3   R VALUE     (WORKING + TEST SET) : 0.26002
REMARK   3   R VALUE            (WORKING SET) :  0.25855
REMARK   3   FREE R VALUE                     :  0.28804
REMARK   3   FREE R VALUE TEST SET SIZE   (%) :  5.1
REMARK   3   FREE R VALUE TEST SET COUNT      :  1702
REMARK   3
REMARK   3  FIT IN THE HIGHEST RESOLUTION BIN.
REMARK   3   TOTAL NUMBER OF BINS USED           :      20
REMARK   3   BIN RESOLUTION RANGE HIGH           :    1.450
REMARK   3   BIN RESOLUTION RANGE LOW            :    1.488
REMARK   3   REFLECTION IN BIN     (WORKING SET) :      705
REMARK   3   BIN COMPLETENESS (WORKING+TEST) (%) :    28.33
REMARK   3   BIN R VALUE           (WORKING SET) :    0.672
REMARK   3   BIN FREE R VALUE SET COUNT          :       44
REMARK   3   BIN FREE R VALUE                    :    0.642
REMARK   3
REMARK   3  NUMBER OF NON-HYDROGEN ATOMS USED IN REFINEMENT.
REMARK   3   ALL ATOMS                :     1921
REMARK   3
REMARK   3  B VALUES.
REMARK   3   FROM WILSON PLOT           (A**2) : NULL
REMARK   3   MEAN B VALUE      (OVERALL, A**2) :  46.257
REMARK   3   OVERALL ANISOTROPIC B VALUE.
REMARK   3    B11 (A**2) :    -0.22
REMARK   3    B22 (A**2) :    -0.22
REMARK   3    B33 (A**2) :     0.45
REMARK   3    B12 (A**2) :     0.00
REMARK   3    B13 (A**2) :     0.00
REMARK   3    B23 (A**2) :     0.00
REMARK   3
REMARK   3  ESTIMATED OVERALL COORDINATE ERROR.
REMARK   3   ESU BASED ON R VALUE                            (A):   0.111
REMARK   3   ESU BASED ON FREE R VALUE                       (A):   0.108
REMARK   3   ESU BASED ON MAXIMUM LIKELIHOOD                 (A):   0.214
REMARK   3   ESU FOR B VALUES BASED ON MAXIMUM LIKELIHOOD (A**2):  14.651
REMARK   3
REMARK   3 CORRELATION COEFFICIENTS.
REMARK   3   CORRELATION COEFFICIENT FO-FC      :   0.959
REMARK   3   CORRELATION COEFFICIENT FO-FC FREE :   0.949
REMARK   3
REMARK   3  RMS DEVIATIONS FROM IDEAL VALUES        COUNT    RMS    WEIGHT
REMARK   3   BOND LENGTHS REFINED ATOMS        (A):  2059 ; 0.025 ; 0.013
REMARK   3   BOND LENGTHS OTHERS               (A):  1715 ; 0.011 ; 0.015
REMARK   3   BOND ANGLES REFINED ATOMS   (DEGREES):  2520 ; 1.979 ; 1.633
REMARK   3   BOND ANGLES OTHERS          (DEGREES):  3945 ; 1.444 ; 1.588
REMARK   3   TORSION ANGLES, PERIOD 1    (DEGREES):   235 ; 8.301 ; 5.000
REMARK   3   TORSION ANGLES, PERIOD 2    (DEGREES):    80 ;31.013 ;22.500
REMARK   3   TORSION ANGLES, PERIOD 3    (DEGREES):   283 ;17.037 ;15.000
REMARK   3   TORSION ANGLES, PERIOD 4    (DEGREES):    10 ;16.048 ;15.000
REMARK   3   CHIRAL-CENTER RESTRAINTS       (A**3):   224 ; 0.099 ; 0.200
REMARK   3   GENERAL PLANES REFINED ATOMS      (A):  2112 ; 0.015 ; 0.020
REMARK   3   GENERAL PLANES OTHERS             (A):   418 ; 0.007 ; 0.020
REMARK   3
REMARK   3  ISOTROPIC THERMAL FACTOR RESTRAINTS.     COUNT   RMS    WEIGHT
REMARK   3   MAIN-CHAIN BOND REFINED ATOMS  (A**2):  1002 ; 1.395 ; 2.276
REMARK   3   MAIN-CHAIN BOND OTHER ATOMS    (A**2):   972 ; 1.410 ; 2.131
REMARK   3   MAIN-CHAIN ANGLE REFINED ATOMS (A**2):  1149 ; 2.316 ; 3.127
REMARK   3   MAIN-CHAIN ANGLE OTHER ATOMS (A**2)  :  1150 ; 2.315 ; 3.130
REMARK   3   SIDE-CHAIN BOND REFINED ATOMS  (A**2):  1057 ; 1.779 ; 2.848
REMARK   3   SIDE-CHAIN BOND OTHER ATOMS  (A**2)  :  1058 ; 1.778 ; 2.853
REMARK   3   SIDE-CHAIN ANGLE OTHER ATOMS (A**2)  :  1372 ; 2.666 ; 3.789
REMARK   3   LONG RANGE B REFINED ATOMS (A**2)    :  2002 ;24.482 ;24.449
REMARK   3   LONG RANGE B OTHER ATOMS (A**2)      :  1990 ;24.542 ;24.143
REMARK   3
REMARK   3  NCS RESTRAINTS STATISTICS
REMARK   3   NUMBER OF NCS GROUPS : NULL
REMARK   3
REMARK   3  TWIN DETAILS
REMARK   3   NUMBER OF TWIN DOMAINS  : NULL
REMARK   3
REMARK   3
REMARK   3  TLS DETAILS
REMARK   3   NUMBER OF TLS GROUPS  :    2
REMARK   3   ATOM RECORD CONTAINS SUM OF TLS AND RESIDUAL B FACTORS
REMARK   3
REMARK   3   TLS GROUP :     1
REMARK   3    NUMBER OF COMPONENTS GROUP :    1
REMARK   3    COMPONENTS        C SSSEQI   TO  C SSSEQI
REMARK   3    RESIDUE RANGE :   A    50        A    88
REMARK   3    ORIGIN FOR THE GROUP (A): -13.4099  -2.1603 -19.2361
REMARK   3    T TENSOR
REMARK   3      T11:   0.3511 T22:   0.3338
REMARK   3      T33:   0.0658 T12:   0.1120
REMARK   3      T13:   0.0812 T23:   0.0709
REMARK   3    L TENSOR
REMARK   3      L11:   1.5341 L22:   1.8513
REMARK   3      L33:   0.9550 L12:  -0.4001
REMARK   3      L13:   0.1253 L23:   0.4387
REMARK   3    S TENSOR
REMARK   3      S11:   0.2203 S12:   0.2102 S13:   0.2685
REMARK   3      S21:  -0.3198 S22:  -0.1931 S23:  -0.2388
REMARK   3      S31:  -0.0282 S32:   0.1807 S33:  -0.0272
REMARK   3
REMARK   3   TLS GROUP :     2
REMARK   3    NUMBER OF COMPONENTS GROUP :    1
REMARK   3    COMPONENTS        C SSSEQI   TO  C SSSEQI
REMARK   3    RESIDUE RANGE :   B    16        B   304
REMARK   3    ORIGIN FOR THE GROUP (A): -18.2095   0.6736 -15.8619
REMARK   3    T TENSOR
REMARK   3      T11:   0.3770 T22:   0.3550
REMARK   3      T33:   0.0306 T12:   0.1113
REMARK   3      T13:   0.0472 T23:   0.0246
REMARK   3    L TENSOR
REMARK   3      L11:   0.9254 L22:   0.6471
REMARK   3      L33:   0.4742 L12:  -0.1757
REMARK   3      L13:   0.3874 L23:   0.0590
REMARK   3    S TENSOR
REMARK   3      S11:   0.2384 S12:   0.1191 S13:   0.1008
REMARK   3      S21:  -0.1427 S22:  -0.2498 S23:   0.0339
REMARK   3      S31:   0.0405 S32:   0.0882 S33:   0.0114
REMARK   3
REMARK   3
REMARK   3  BULK SOLVENT MODELLING.
REMARK   3   METHOD USED :  MASK
REMARK   3   PARAMETERS FOR MASK CALCULATION
REMARK   3   VDW PROBE RADIUS   :   1.20
REMARK   3   ION PROBE RADIUS   :   0.80
REMARK   3   SHRINKAGE RADIUS   :   0.80
REMARK   3
REMARK   3  OTHER REFINEMENT REMARKS:
REMARK   3  HYDROGENS HAVE BEEN ADDED IN THE RIDING POSITIONS
REMARK   3  U VALUES      : WITH TLS ADDED
REMARK   3
CRYST1   42.627   42.627  216.053  90.00  90.00  90.00 P 43 2 2                 


$$$$
Zx1317a_ligand
  PyMOL3.0          3D                             0

 29 32  0  0  0  0  0  0  0  0999 V2000
   -7.6190    8.6940  -13.3350 C   0  0  0  0  0  0  0  0  0  0  0  0
   -8.7270    4.0590   -8.6680 N   0  0  0  0  0  0  0  0  0  0  0  0
   -9.8550    7.5870  -14.0880 O   0  0  0  0  0  0  0  0  0  0  0  0
   -9.2440    8.1790  -12.9300 S   0  0  0  0  0  0  0  0  0  0  0  0
   -9.0450    6.9120  -11.7160 C   0  0  0  0  0  0  0  0  0  0  0  0
   -9.4010    2.7100   -6.5930 N   0  0  0  0  0  0  0  0  0  0  0  0
   -9.9240    9.2800  -12.3100 O   0  0  0  0  0  0  0  0  0  0  0  0
   -9.1170    7.2920  -10.3830 C   0  0  0  0  0  0  0  0  0  0  0  0
   -8.7820    5.0980  -13.3590 N   0  0  0  0  0  0  0  0  0  0  0  0
   -6.7620    6.0040  -13.8300 O   0  0  0  0  0  0  0  0  0  0  0  0
   -8.9950    6.3520   -9.3820 C   0  0  0  0  0  0  0  0  0  0  0  0
   -5.9770    4.3690  -18.7530 N   0  0  0  0  0  0  0  0  0  0  0  0
   -8.8100    4.9990   -9.6860 C   0  0  0  0  0  0  0  0  0  0  0  0
   -7.7710    4.2710   -7.5770 C   0  0  0  0  0  0  0  0  0  0  0  0
   -8.2410    3.5550   -6.3250 C   0  0  0  0  0  0  0  0  0  0  0  0
   -9.1810    1.8340   -7.7360 C   0  0  0  0  0  0  0  0  0  0  0  0
   -8.8950    2.6390   -8.9920 C   0  0  0  0  0  0  0  0  0  0  0  0
   -8.7410    4.6090  -11.0230 C   0  0  0  0  0  0  0  0  0  0  0  0
   -8.8770    5.5560  -12.0300 C   0  0  0  0  0  0  0  0  0  0  0  0
   -7.7510    5.3790  -14.1890 C   0  0  0  0  0  0  0  0  0  0  0  0
   -7.9170    4.9510  -15.6190 C   0  0  0  0  0  0  0  0  0  0  0  0
   -9.1760    4.6960  -16.1020 C   0  0  0  0  0  0  0  0  0  0  0  0
   -9.3770    4.3280  -17.4460 C   0  0  0  0  0  0  0  0  0  0  0  0
   -8.3170    4.2310  -18.3020 C   0  0  0  0  0  0  0  0  0  0  0  0
   -7.0030    4.4940  -17.8510 C   0  0  0  0  0  0  0  0  0  0  0  0
   -4.7540    4.6150  -18.3190 C   0  0  0  0  0  0  0  0  0  0  0  0
   -4.4360    4.9880  -17.0000 C   0  0  0  0  0  0  0  0  0  0  0  0
   -5.4460    5.1100  -16.0910 C   0  0  0  0  0  0  0  0  0  0  0  0
   -6.7860    4.8580  -16.4910 C   0  0  0  0  0  0  0  0  0  0  0  0
  1  4  1  0  0  0  0
  2 14  1  0  0  0  0
  2 17  1  0  0  0  0
  3  4  2  0  0  0  0
  4  5  1  0  0  0  0
  4  7  2  0  0  0  0
  5  8  4  0  0  0  0
  5 19  4  0  0  0  0
  6 16  1  0  0  0  0
  8 11  4  0  0  0  0
  9 20  1  0  0  0  0
 11 13  4  0  0  0  0
 12 26  4  0  0  0  0
  2 13  1  0  0  0  0
 13 18  4  0  0  0  0
 14 15  1  0  0  0  0
  6 15  1  0  0  0  0
 16 17  1  0  0  0  0
 18 19  4  0  0  0  0
  9 19  1  0  0  0  0
 10 20  2  0  0  0  0
 20 21  1  0  0  0  0
 21 22  4  0  0  0  0
 21 29  4  0  0  0  0
 22 23  4  0  0  0  0
 23 24  4  0  0  0  0
 24 25  4  0  0  0  0
 12 25  4  0  0  0  0
 25 29  4  0  0  0  0
 26 27  4  0  0  0  0
 27 28  4  0  0  0  0
 28 29  4  0  0  0  0
M  END
>  <pdb_header>
COMPND    XX01ZVNS2B-x1317_B_301_XX01ZVNS2B-x1291+B+301+1


$$$$
Zx1320a
  PyMOL3.0          3D                             0

 23 25  0  0  0  0  0  0  0  0999 V2000
   -2.0000    7.3650  -14.1760 C   0  0  0  0  0  0  0  0  0  0  0  0
   -8.5670    4.2920  -13.5890 N   0  0  0  0  0  0  0  0  0  0  0  0
   -2.3130    7.2190  -15.5720 O   0  0  0  0  0  0  0  0  0  0  0  0
   -3.5270    6.7130  -15.9040 C   0  0  0  0  0  0  0  0  0  0  0  0
   -8.5290    3.9870   -9.9830 N   0  0  0  0  0  0  0  0  0  0  0  0
   -7.9410    6.3830  -14.2010 O   0  0  0  0  0  0  0  0  0  0  0  0
   -4.3520    7.4470  -16.7590 C   0  0  0  0  0  0  0  0  0  0  0  0
   -8.2790    5.3210  -10.1770 N   0  0  0  0  0  0  0  0  0  0  0  0
   -5.5760    6.9140  -17.0800 C   0  0  0  0  0  0  0  0  0  0  0  0
   -3.8580    5.5390  -15.3900 N   0  0  0  0  0  0  0  0  0  0  0  0
   -5.9800    5.6870  -16.5560 C   0  0  0  0  0  0  0  0  0  0  0  0
   -7.3050    5.0780  -16.9060 C   0  0  0  0  0  0  0  0  0  0  0  0
   -7.5250    4.6610  -18.2230 C   0  0  0  0  0  0  0  0  0  0  0  0
   -8.7110    4.0660  -18.6090 C   0  0  0  0  0  0  0  0  0  0  0  0
   -9.7100    3.8610  -17.6860 C   0  0  0  0  0  0  0  0  0  0  0  0
   -9.5230    4.2460  -16.3750 C   0  0  0  0  0  0  0  0  0  0  0  0
   -8.3280    4.8460  -15.9620 C   0  0  0  0  0  0  0  0  0  0  0  0
   -8.2510    5.2450  -14.5150 C   0  0  0  0  0  0  0  0  0  0  0  0
   -8.4940    4.4680  -12.1940 C   0  0  0  0  0  0  0  0  0  0  0  0
   -8.6560    3.4880  -11.2040 C   0  0  0  0  0  0  0  0  0  0  0  0
   -8.0850    6.2100   -9.0340 C   0  0  0  0  0  0  0  0  0  0  0  0
   -8.2510    5.6470  -11.4890 C   0  0  0  0  0  0  0  0  0  0  0  0
   -5.0680    5.0370  -15.7250 C   0  0  0  0  0  0  0  0  0  0  0  0
  1  3  1  0  0  0  0
  3  4  1  0  0  0  0
  4  7  4  0  0  0  0
  4 10  4  0  0  0  0
  5  8  4  0  0  0  0
  7  9  4  0  0  0  0
  9 11  4  0  0  0  0
 11 12  1  0  0  0  0
 12 13  4  0  0  0  0
 13 14  4  0  0  0  0
 14 15  4  0  0  0  0
 15 16  4  0  0  0  0
 16 17  4  0  0  0  0
 12 17  4  0  0  0  0
 17 18  1  0  0  0  0
  2 18  1  0  0  0  0
  6 18  2  0  0  0  0
  2 19  1  0  0  0  0
 19 20  4  0  0  0  0
 19 22  4  0  0  0  0
  5 20  4  0  0  0  0
  8 21  1  0  0  0  0
  8 22  4  0  0  0  0
 10 23  4  0  0  0  0
 11 23  4  0  0  0  0
M  END
>  <pdb_header>
HEADER    ----                                    07-NOV-23   XXXX              
TITLE     ---                                                                   
REMARK   3
REMARK   3 REFINEMENT.
REMARK   3   PROGRAM     : REFMAC 5.8.0267   
REMARK   3   AUTHORS     : MURSHUDOV,SKUBAK,LEBEDEV,PANNU,
REMARK   3                 STEINER,NICHOLLS,WINN,LONG,VAGIN
REMARK   3
REMARK   3    REFINEMENT TARGET : MAXIMUM LIKELIHOOD
REMARK   3
REMARK   3  DATA USED IN REFINEMENT.
REMARK   3   RESOLUTION RANGE HIGH (ANGSTROMS) :   1.67
REMARK   3   RESOLUTION RANGE LOW  (ANGSTROMS) :  54.11
REMARK   3   DATA CUTOFF            (SIGMA(F)) : NONE
REMARK   3   COMPLETENESS FOR RANGE        (%) :  87.97
REMARK   3   NUMBER OF REFLECTIONS             :   20309
REMARK   3
REMARK   3  FIT TO DATA USED IN REFINEMENT.
REMARK   3   CROSS-VALIDATION METHOD          : THROUGHOUT
REMARK   3   FREE R VALUE TEST SET SELECTION  : RANDOM
REMARK   3   R VALUE     (WORKING + TEST SET) : 0.23672
REMARK   3   R VALUE            (WORKING SET) :  0.23437
REMARK   3   FREE R VALUE                     :  0.28119
REMARK   3   FREE R VALUE TEST SET SIZE   (%) :  5.0
REMARK   3   FREE R VALUE TEST SET COUNT      :  1080
REMARK   3
REMARK   3  FIT IN THE HIGHEST RESOLUTION BIN.
REMARK   3   TOTAL NUMBER OF BINS USED           :      20
REMARK   3   BIN RESOLUTION RANGE HIGH           :    1.669
REMARK   3   BIN RESOLUTION RANGE LOW            :    1.712
REMARK   3   REFLECTION IN BIN     (WORKING SET) :      386
REMARK   3   BIN COMPLETENESS (WORKING+TEST) (%) :    23.48
REMARK   3   BIN R VALUE           (WORKING SET) :    0.644
REMARK   3   BIN FREE R VALUE SET COUNT          :       24
REMARK   3   BIN FREE R VALUE                    :    0.723
REMARK   3
REMARK   3  NUMBER OF NON-HYDROGEN ATOMS USED IN REFINEMENT.
REMARK   3   ALL ATOMS                :     1881
REMARK   3
REMARK   3  B VALUES.
REMARK   3   FROM WILSON PLOT           (A**2) : NULL
REMARK   3   MEAN B VALUE      (OVERALL, A**2) :  55.224
REMARK   3   OVERALL ANISOTROPIC B VALUE.
REMARK   3    B11 (A**2) :     1.80
REMARK   3    B22 (A**2) :     1.80
REMARK   3    B33 (A**2) :    -3.60
REMARK   3    B12 (A**2) :     0.00
REMARK   3    B13 (A**2) :    -0.00
REMARK   3    B23 (A**2) :    -0.00
REMARK   3
REMARK   3  ESTIMATED OVERALL COORDINATE ERROR.
REMARK   3   ESU BASED ON R VALUE                            (A):   0.159
REMARK   3   ESU BASED ON FREE R VALUE                       (A):   0.152
REMARK   3   ESU BASED ON MAXIMUM LIKELIHOOD                 (A):   0.204
REMARK   3   ESU FOR B VALUES BASED ON MAXIMUM LIKELIHOOD (A**2):  14.125
REMARK   3
REMARK   3 CORRELATION COEFFICIENTS.
REMARK   3   CORRELATION COEFFICIENT FO-FC      :   0.962
REMARK   3   CORRELATION COEFFICIENT FO-FC FREE :   0.947
REMARK   3
REMARK   3  RMS DEVIATIONS FROM IDEAL VALUES        COUNT    RMS    WEIGHT
REMARK   3   BOND LENGTHS REFINED ATOMS        (A):  2005 ; 0.011 ; 0.013
REMARK   3   BOND LENGTHS OTHERS               (A):  1682 ; 0.001 ; 0.015
REMARK   3   BOND ANGLES REFINED ATOMS   (DEGREES):  2481 ; 1.682 ; 1.639
REMARK   3   BOND ANGLES OTHERS          (DEGREES):  3874 ; 1.254 ; 1.589
REMARK   3   TORSION ANGLES, PERIOD 1    (DEGREES):   238 ; 7.919 ; 5.000
REMARK   3   TORSION ANGLES, PERIOD 2    (DEGREES):    80 ;31.340 ;22.500
REMARK   3   TORSION ANGLES, PERIOD 3    (DEGREES):   283 ;15.355 ;15.000
REMARK   3   TORSION ANGLES, PERIOD 4    (DEGREES):    10 ;17.550 ;15.000
REMARK   3   CHIRAL-CENTER RESTRAINTS       (A**3):   219 ; 0.066 ; 0.200
REMARK   3   GENERAL PLANES REFINED ATOMS      (A):  2139 ; 0.008 ; 0.020
REMARK   3   GENERAL PLANES OTHERS             (A):   421 ; 0.001 ; 0.020
REMARK   3
REMARK   3  ISOTROPIC THERMAL FACTOR RESTRAINTS.     COUNT   RMS    WEIGHT
REMARK   3   MAIN-CHAIN BOND REFINED ATOMS  (A**2):   990 ; 2.105 ; 3.501
REMARK   3   MAIN-CHAIN BOND OTHER ATOMS    (A**2):   958 ; 2.135 ; 3.373
REMARK   3   MAIN-CHAIN ANGLE REFINED ATOMS (A**2):  1152 ; 3.558 ; 4.980
REMARK   3   MAIN-CHAIN ANGLE OTHER ATOMS (A**2)  :  1153 ; 3.558 ; 4.985
REMARK   3   SIDE-CHAIN BOND REFINED ATOMS  (A**2):  1015 ; 2.618 ; 4.415
REMARK   3   SIDE-CHAIN BOND OTHER ATOMS  (A**2)  :  1002 ; 2.631 ; 4.358
REMARK   3   SIDE-CHAIN ANGLE OTHER ATOMS (A**2)  :  1318 ; 4.309 ; 5.847
REMARK   3   LONG RANGE B REFINED ATOMS (A**2)    :  1963 ;23.015 ;37.835
REMARK   3   LONG RANGE B OTHER ATOMS (A**2)      :  1945 ;23.074 ;37.500
REMARK   3
REMARK   3  NCS RESTRAINTS STATISTICS
REMARK   3   NUMBER OF NCS GROUPS : NULL
REMARK   3
REMARK   3  TWIN DETAILS
REMARK   3   NUMBER OF TWIN DOMAINS  : NULL
REMARK   3
REMARK   3
REMARK   3  TLS DETAILS
REMARK   3   NUMBER OF TLS GROUPS  :    2
REMARK   3   ATOM RECORD CONTAINS SUM OF TLS AND RESIDUAL B FACTORS
REMARK   3
REMARK   3   TLS GROUP :     1
REMARK   3    NUMBER OF COMPONENTS GROUP :    1
REMARK   3    COMPONENTS        C SSSEQI   TO  C SSSEQI
REMARK   3    RESIDUE RANGE :   A    50        A    88
REMARK   3    ORIGIN FOR THE GROUP (A): -13.4835  -1.8719 -19.3211
REMARK   3    T TENSOR
REMARK   3      T11:   0.2549 T22:   0.3167
REMARK   3      T33:   0.0528 T12:   0.1811
REMARK   3      T13:   0.0708 T23:   0.0633
REMARK   3    L TENSOR
REMARK   3      L11:   1.0426 L22:   2.0234
REMARK   3      L33:   0.7464 L12:  -0.4864
REMARK   3      L13:  -0.2402 L23:   0.0629
REMARK   3    S TENSOR
REMARK   3      S11:   0.4047 S12:   0.2997 S13:   0.2213
REMARK   3      S21:  -0.2897 S22:  -0.3672 S23:  -0.1623
REMARK   3      S31:  -0.1260 S32:   0.2588 S33:  -0.0376
REMARK   3
REMARK   3   TLS GROUP :     2
REMARK   3    NUMBER OF COMPONENTS GROUP :    1
REMARK   3    COMPONENTS        C SSSEQI   TO  C SSSEQI
REMARK   3    RESIDUE RANGE :   B    16        B   302
REMARK   3    ORIGIN FOR THE GROUP (A): -18.2466   0.7681 -15.8446
REMARK   3    T TENSOR
REMARK   3      T11:   0.2459 T22:   0.2272
REMARK   3      T33:   0.1340 T12:   0.1345
REMARK   3      T13:   0.0601 T23:   0.0139
REMARK   3    L TENSOR
REMARK   3      L11:   0.3104 L22:   0.3125
REMARK   3      L33:   0.9225 L12:  -0.2061
REMARK   3      L13:   0.4151 L23:  -0.0831
REMARK   3    S TENSOR
REMARK   3      S11:   0.2270 S12:   0.1780 S13:   0.0472
REMARK   3      S21:  -0.1981 S22:  -0.2451 S23:   0.0174
REMARK   3      S31:   0.1594 S32:   0.1278 S33:   0.0181
REMARK   3
REMARK   3
REMARK   3  BULK SOLVENT MODELLING.
REMARK   3   METHOD USED :  MASK
REMARK   3   PARAMETERS FOR MASK CALCULATION
REMARK   3   VDW PROBE RADIUS   :   1.20
REMARK   3   ION PROBE RADIUS   :   0.80
REMARK   3   SHRINKAGE RADIUS   :   0.80
REMARK   3
REMARK   3  OTHER REFINEMENT REMARKS:
REMARK   3  HYDROGENS HAVE BEEN ADDED IN THE RIDING POSITIONS
REMARK   3  U VALUES      : WITH TLS ADDED
REMARK   3
CRYST1   42.481   42.481  216.453  90.00  90.00  90.00 P 43 2 2                 


$$$$
Zx1320a_ligand
  PyMOL3.0          3D                             0

 23 25  0  0  0  0  0  0  0  0999 V2000
   -2.0000    7.3650  -14.1760 C   0  0  0  0  0  0  0  0  0  0  0  0
   -8.5670    4.2920  -13.5890 N   0  0  0  0  0  0  0  0  0  0  0  0
   -2.3130    7.2190  -15.5720 O   0  0  0  0  0  0  0  0  0  0  0  0
   -3.5270    6.7130  -15.9040 C   0  0  0  0  0  0  0  0  0  0  0  0
   -8.5290    3.9870   -9.9830 N   0  0  0  0  0  0  0  0  0  0  0  0
   -7.9410    6.3830  -14.2010 O   0  0  0  0  0  0  0  0  0  0  0  0
   -4.3520    7.4470  -16.7590 C   0  0  0  0  0  0  0  0  0  0  0  0
   -8.2790    5.3210  -10.1770 N   0  0  0  0  0  0  0  0  0  0  0  0
   -5.5760    6.9140  -17.0800 C   0  0  0  0  0  0  0  0  0  0  0  0
   -3.8580    5.5390  -15.3900 N   0  0  0  0  0  0  0  0  0  0  0  0
   -5.9800    5.6870  -16.5560 C   0  0  0  0  0  0  0  0  0  0  0  0
   -7.3050    5.0780  -16.9060 C   0  0  0  0  0  0  0  0  0  0  0  0
   -7.5250    4.6610  -18.2230 C   0  0  0  0  0  0  0  0  0  0  0  0
   -8.7110    4.0660  -18.6090 C   0  0  0  0  0  0  0  0  0  0  0  0
   -9.7100    3.8610  -17.6860 C   0  0  0  0  0  0  0  0  0  0  0  0
   -9.5230    4.2460  -16.3750 C   0  0  0  0  0  0  0  0  0  0  0  0
   -8.3280    4.8460  -15.9620 C   0  0  0  0  0  0  0  0  0  0  0  0
   -8.2510    5.2450  -14.5150 C   0  0  0  0  0  0  0  0  0  0  0  0
   -8.4940    4.4680  -12.1940 C   0  0  0  0  0  0  0  0  0  0  0  0
   -8.6560    3.4880  -11.2040 C   0  0  0  0  0  0  0  0  0  0  0  0
   -8.0850    6.2100   -9.0340 C   0  0  0  0  0  0  0  0  0  0  0  0
   -8.2510    5.6470  -11.4890 C   0  0  0  0  0  0  0  0  0  0  0  0
   -5.0680    5.0370  -15.7250 C   0  0  0  0  0  0  0  0  0  0  0  0
  1  3  1  0  0  0  0
  2 19  1  0  0  0  0
  3  4  1  0  0  0  0
  4  7  4  0  0  0  0
  4 10  4  0  0  0  0
  5  8  4  0  0  0  0
  7  9  4  0  0  0  0
  8 21  1  0  0  0  0
  8 22  4  0  0  0  0
  9 11  4  0  0  0  0
 11 12  1  0  0  0  0
 11 23  4  0  0  0  0
 12 13  4  0  0  0  0
 12 17  4  0  0  0  0
 13 14  4  0  0  0  0
 14 15  4  0  0  0  0
 15 16  4  0  0  0  0
 16 17  4  0  0  0  0
 17 18  1  0  0  0  0
  2 18  1  0  0  0  0
  6 18  2  0  0  0  0
 19 20  4  0  0  0  0
 19 22  4  0  0  0  0
  5 20  4  0  0  0  0
 10 23  4  0  0  0  0
M  END
>  <pdb_header>
COMPND    XX01ZVNS2B-x1320_B_301_XX01ZVNS2B-x1291+B+301+1


$$$$
Zx1325a
  PyMOL3.0          3D                             0

 22 24  0  0  0  0  0  0  0  0999 V2000
   -2.0630    6.7120  -16.2490 C   0  0  0  0  0  0  0  0  0  0  0  0
   -4.1040    6.7710  -17.5600 N   0  0  0  0  0  0  0  0  0  0  0  0
   -7.7340    6.0770  -14.5170 O   0  0  0  0  0  0  0  0  0  0  0  0
   -3.4590    6.2470  -16.5120 C   0  0  0  0  0  0  0  0  0  0  0  0
   -8.5290    4.0250  -13.9680 N   0  0  0  0  0  0  0  0  0  0  0  0
   -5.3470    6.3390  -17.7930 C   0  0  0  0  0  0  0  0  0  0  0  0
   -8.5920    3.6430  -10.3740 N   0  0  0  0  0  0  0  0  0  0  0  0
   -6.0060    5.4460  -16.9630 C   0  0  0  0  0  0  0  0  0  0  0  0
   -8.3340    4.9790  -10.5360 N   0  0  0  0  0  0  0  0  0  0  0  0
   -7.3550    4.8980  -17.2920 C   0  0  0  0  0  0  0  0  0  0  0  0
   -3.9690    5.3220  -15.6960 N   0  0  0  0  0  0  0  0  0  0  0  0
   -7.6570    4.5890  -18.6190 C   0  0  0  0  0  0  0  0  0  0  0  0
   -8.8620    4.0150  -18.9740 C   0  0  0  0  0  0  0  0  0  0  0  0
   -9.8170    3.7750  -18.0140 C   0  0  0  0  0  0  0  0  0  0  0  0
   -9.5390    4.0530  -16.6920 C   0  0  0  0  0  0  0  0  0  0  0  0
   -8.3360    4.6530  -16.3160 C   0  0  0  0  0  0  0  0  0  0  0  0
   -8.1750    4.9910  -14.8620 C   0  0  0  0  0  0  0  0  0  0  0  0
   -8.4840    4.1660  -12.5700 C   0  0  0  0  0  0  0  0  0  0  0  0
   -8.6810    3.1670  -11.6080 C   0  0  0  0  0  0  0  0  0  0  0  0
   -8.1810    5.8480   -9.3720 C   0  0  0  0  0  0  0  0  0  0  0  0
   -8.2840    5.3330  -11.8430 C   0  0  0  0  0  0  0  0  0  0  0  0
   -5.2090    4.9040  -15.9630 C   0  0  0  0  0  0  0  0  0  0  0  0
  1  4  1  0  0  0  0
  2  6  4  0  0  0  0
  2  4  4  0  0  0  0
  4 11  4  0  0  0  0
  5 18  1  0  0  0  0
  6  8  4  0  0  0  0
  7  9  4  0  0  0  0
  8 10  1  0  0  0  0
  8 22  4  0  0  0  0
  9 20  1  0  0  0  0
  9 21  4  0  0  0  0
 10 12  4  0  0  0  0
 10 16  4  0  0  0  0
 12 13  4  0  0  0  0
 13 14  4  0  0  0  0
 14 15  4  0  0  0  0
 15 16  4  0  0  0  0
 16 17  1  0  0  0  0
  3 17  2  0  0  0  0
  5 17  1  0  0  0  0
 18 19  4  0  0  0  0
 18 21  4  0  0  0  0
  7 19  4  0  0  0  0
 11 22  4  0  0  0  0
M  END
>  <pdb_header>
HEADER    ----                                    23-FEB-23                     
TITLE     ---                                                                   
EXPDTA    X-RAY DIFFRACTION                                                     
REMARK --------------------- added by autoBUSTER ---------------------------------START
REMARK run at   = Fri Jan 19 17:31:14 GMT 2024
REMARK     in   = /dls/labxchem/data/lb32627/lb32627-65/processing/analysis/model_building/XX01ZVNS2B-x1325
REMARK     user = kyf22269
REMARK     cmd  = \
REMARK            /dls_sw/apps/GPhL/BUSTER/20211020/autoBUSTER/bin/linux64/refine \
REMARK            -p \
REMARK            /dls/labxchem/data/lb32627/lb32627-65/processing/analysis/model_building/XX01ZVNS2B-x1325/cootOut/Refi
REMARK            -m \
REMARK            /dls/labxchem/data/lb32627/lb32627-65/processing/analysis/model_building/XX01ZVNS2B-x1325/XX01ZVNS2B-x
REMARK            -l \
REMARK            /dls/labxchem/data/lb32627/lb32627-65/processing/analysis/model_building/XX01ZVNS2B-x1325/ASAP-0014738
REMARK            -autoncs -M TLSbasic -d Refine_10
REMARK Files used:
REMARK   PDB              = Refine_10/pdbchk.pdb
REMARK   MTZ              = /dls/labxchem/data/lb32627/lb32627-65/processing/analysis/model_building/XX01ZVNS2B-x1325/XX
REMARK output written to subdirectory = Refine_10
REMARK best refinement for F,SIGF with R/Rfree 0.2462/0.2643
REMARK header records are copied from input PDB file (apart from REMARK 3!)
REMARK --------------------- added by autoBUSTER -----------------------------------END
REMARK --------------------- added by autoBUSTER -------------------------------
REMARK run at   = Fri Jan 19 17:18:58 GMT 2024                                  
REMARK     in   = /dls/labxchem/data/lb32627/lb32627-65/processing/analysis/mode
REMARK     user = kyf22269                                                      
REMARK     cmd  = \                                                             
REMARK            /dls_sw/apps/GPhL/BUSTER/20211020/autoBUSTER/bin/linux64/refin
REMARK            -p \                                                          
REMARK            /dls/labxchem/data/lb32627/lb32627-65/processing/analysis/mode
REMARK            -m \                                                          
REMARK            /dls/labxchem/data/lb32627/lb32627-65/processing/analysis/mode
REMARK            -l \                                                          
REMARK            /dls/labxchem/data/lb32627/lb32627-65/processing/analysis/mode
REMARK            -autoncs -M TLSbasic -d Refine_9                              
REMARK Files used:                                                              
REMARK   PDB              = Refine_9/pdbchk.pdb                                 
REMARK   MTZ              = /dls/labxchem/data/lb32627/lb32627-65/processing/ana
REMARK output written to subdirectory = Refine_9                                
REMARK best refinement for F,SIGF with R/Rfree 0.2429/0.2592                    
REMARK header records are copied from input PDB file (apart from REMARK 3!)     
REMARK --------------------- added by autoBUSTER -------------------------------
REMARK --------------------- added by autoBUSTER -------------------------------
REMARK run at   = Fri Jan 19 16:53:39 GMT 2024                                  
REMARK     in   = /dls/labxchem/data/lb32627/lb32627-65/processing/analysis/mode
REMARK     user = kyf22269                                                      
REMARK     cmd  = \                                                             
REMARK            /dls_sw/apps/GPhL/BUSTER/20211020/autoBUSTER/bin/linux64/refin
REMARK            -p \                                                          
REMARK            /dls/labxchem/data/lb32627/lb32627-65/processing/analysis/mode
REMARK            -m \                                                          
REMARK            /dls/labxchem/data/lb32627/lb32627-65/processing/analysis/mode
REMARK            -l \                                                          
REMARK            /dls/labxchem/data/lb32627/lb32627-65/processing/analysis/mode
REMARK            -autoncs -M TLSbasic -d Refine_8                              
REMARK Files used:                                                              
REMARK   PDB              = Refine_8/pdbchk.pdb                                 
REMARK   MTZ              = /dls/labxchem/data/lb32627/lb32627-65/processing/ana
REMARK output written to subdirectory = Refine_8                                
REMARK best refinement for F,SIGF with R/Rfree 0.2578/0.2746                    
REMARK header records are copied from input PDB file (apart from REMARK 3!)     
REMARK --------------------- added by autoBUSTER -------------------------------
REMARK --------------------- added by autoBUSTER -------------------------------
REMARK run at   = Fri Jan 19 15:33:53 GMT 2024                                  
REMARK     in   = /dls/labxchem/data/lb32627/lb32627-65/processing/analysis/mode
REMARK     user = kyf22269                                                      
REMARK     cmd  = \                                                             
REMARK            /dls_sw/apps/GPhL/BUSTER/20211020/autoBUSTER/bin/linux64/refin
REMARK            -p \                                                          
REMARK            /dls/labxchem/data/lb32627/lb32627-65/processing/analysis/mode
REMARK            -m \                                                          
REMARK            /dls/labxchem/data/lb32627/lb32627-65/processing/analysis/mode
REMARK            -l \                                                          
REMARK            /dls/labxchem/data/lb32627/lb32627-65/processing/analysis/mode
REMARK            -autoncs -M TLSbasic -d Refine_7                              
REMARK Files used:                                                              
REMARK   PDB              = Refine_7/pdbchk.pdb                                 
REMARK   MTZ              = /dls/labxchem/data/lb32627/lb32627-65/processing/ana
REMARK output written to subdirectory = Refine_7                                
REMARK best refinement for F,SIGF with R/Rfree 0.2530/0.2644                    
REMARK header records are copied from input PDB file (apart from REMARK 3!)     
REMARK --------------------- added by autoBUSTER -------------------------------
REMARK   2                                                            
REMARK   2 RESOLUTION.    1.46 ANGSTROMS.
REMARK   3
REMARK   3 REFINEMENT.
REMARK   3   PROGRAM     : BUSTER 2.10.4 (20-OCT-2021)
REMARK   3   AUTHORS     : BRICOGNE,BLANC,BRANDL,FLENSBURG,KELLER,
REMARK   3               : PACIOREK,ROVERSI,SHARFF,SMART,VONRHEIN,WOMACK;
REMARK   3               : MATTHEWS,TEN EYCK,TRONRUD
REMARK   3
REMARK   3  DATA USED IN REFINEMENT.
REMARK   3   RESOLUTION RANGE HIGH (ANGSTROMS) : 1.461
REMARK   3   RESOLUTION RANGE LOW  (ANGSTROMS) : 19.27
REMARK   3   DATA CUTOFF            (SIGMA(F)) : 0.000
REMARK   3   COMPLETENESS FOR RANGE        (%) : 91.4
REMARK   3   NUMBER OF REFLECTIONS             : 32781
REMARK   3
REMARK   3  FIT TO DATA USED IN REFINEMENT.
REMARK   3   CROSS-VALIDATION METHOD          : THROUGHOUT
REMARK   3   FREE R VALUE TEST SET SELECTION  : RANDOM
REMARK   3   R VALUE     (WORKING + TEST SET) : 0.2471
REMARK   3   R VALUE            (WORKING SET) : 0.2462
REMARK   3   FREE R VALUE                     : 0.2643
REMARK   3   FREE R VALUE TEST SET SIZE   (%) : 5.070
REMARK   3   FREE R VALUE TEST SET COUNT      : 1662
REMARK   3   ESTIMATED ERROR OF FREE R VALUE  : NULL
REMARK   3
REMARK   3  FIT IN THE HIGHEST RESOLUTION BIN.
REMARK   3   TOTAL NUMBER OF BINS USED           : 51
REMARK   3   BIN RESOLUTION RANGE HIGH       (A) : 1.46
REMARK   3   BIN RESOLUTION RANGE LOW        (A) : 1.51
REMARK   3   BIN COMPLETENESS (WORKING+TEST) (%) : 19.01
REMARK   3   REFLECTIONS IN BIN   (WORKING+TEST) : 656
REMARK   3   BIN R VALUE          (WORKING+TEST) : 0.4711
REMARK   3   REFLECTIONS IN BIN    (WORKING SET) : 626
REMARK   3   BIN R VALUE           (WORKING SET) : 0.4737
REMARK   3   BIN FREE R VALUE                    : 0.4121
REMARK   3   BIN FREE R VALUE TEST SET SIZE  (%) : 4.57
REMARK   3   BIN FREE R VALUE TEST SET COUNT     : 30
REMARK   3   ESTIMATED ERROR OF BIN FREE R VALUE : NULL
REMARK   3
REMARK   3  NUMBER OF NON-HYDROGEN ATOMS USED IN REFINEMENT.
REMARK   3   PROTEIN ATOMS            : 1476
REMARK   3   NUCLEIC ACID ATOMS       : 0
REMARK   3   HETEROGEN ATOMS          : 34
REMARK   3   SOLVENT ATOMS            : 91
REMARK   3
REMARK   3  B VALUES.
REMARK   3   FROM WILSON PLOT           (A**2) : 30.67
REMARK   3   MEAN B VALUE      (OVERALL, A**2) : 50.14
REMARK   3   OVERALL ANISOTROPIC B VALUE.
REMARK   3    B11 (A**2) : -3.72590
REMARK   3    B22 (A**2) : -3.72590
REMARK   3    B33 (A**2) : 7.45180
REMARK   3    B12 (A**2) : 0.00000
REMARK   3    B13 (A**2) : 0.00000
REMARK   3    B23 (A**2) : 0.00000
REMARK   3
REMARK   3  ESTIMATED COORDINATE ERROR.
REMARK   3   ESD FROM LUZZATI PLOT                    (A) : 0.31
REMARK   3   DPI (BLOW EQ-10) BASED ON R VALUE        (A) : 0.096
REMARK   3   DPI (BLOW EQ-9) BASED ON FREE R VALUE    (A) : 0.091
REMARK   3   DPI (CRUICKSHANK) BASED ON R VALUE       (A) : 0.092
REMARK   3   DPI (CRUICKSHANK) BASED ON FREE R VALUE  (A) : 0.089
REMARK   3
REMARK   3   REFERENCES: BLOW, D. (2002) ACTA CRYST D58, 792-797
REMARK   3               CRUICKSHANK, D.W.J. (1999) ACTA CRYST D55, 583-601
REMARK   3
REMARK   3  CORRELATION COEFFICIENTS.
REMARK   3   CORRELATION COEFFICIENT FO-FC      : 0.950
REMARK   3   CORRELATION COEFFICIENT FO-FC FREE : 0.951
REMARK   3
REMARK   3  X-RAY WEIGHT : 4.09
REMARK   3
REMARK   3  GEOMETRY FUNCTION.                                                  
REMARK   3   RESTRAINT LIBRARIES.                                               
REMARK   3    NUMBER OF LIBRARIES USED :   9                                    
REMARK   3    LIBRARY  1 : protgeo_eh99.dat (V1.6.4.17) 20191001  STANDARD      
REMARK   3                 AMINO ACID DICTIONARY. BONDS AND ANGLES FROM         
REMARK   3                 ENGH AND HUBER EH99. OTHER VALUES BASED ON           
REMARK   3                 PREVIOUS TNT OR TAKEN FROM CCP4. INCLUDES            
REMARK   3                 HYDROGEN ATOMS.                                      
REMARK   3    LIBRARY  2 : exoticaa.dat (V1.3.4.15) 20200327  COLLECTION        
REMARK   3                 OF NON-STANDARD AMINO ACIDS, MAINLY EH91             
REMARK   3                 WITHOUT IDEAL DISTANCE INFO                          
REMARK   3    LIBRARY  3 : nuclgeo.dat (V1.13.4.8) 20190909                     
REMARK   3    LIBRARY  4 : bcorrel.dat (V1.15.10.2) 20190616                    
REMARK   3    LIBRARY  5 : contact.dat (V1.15.12.10) 20191121                   
REMARK   3    LIBRARY  6 : idealdist_contact.dat (V1.3.4.12) 20191001           
REMARK   3                 IDEAL-DISTANCE CONTACT TERM DATA AS USED IN          
REMARK   3                 PROLSQ. VALUES USED HERE ARE BASED ON DATA           
REMARK   3                 HARVESTING OF PDB AS OF 20190109.                    
REMARK   3    LIBRARY  7 : restraints for LIG from cif dictionary               
REMARK   3                 ASAP-0014738-001.cif                                 
REMARK   3    LIBRARY  8 : restraints for DMS (DIMETHYL SULFOXIDE) from         
REMARK   3                 cif dictionary DMS.cif; buster common-compounds      
REMARK   3                 v 2.0 (19 Dec 2011)                                  
REMARK   3    LIBRARY  9 : assume.dat (V1.9.4.2) 20180705                       
REMARK   3                                                                      
REMARK   3   NUMBER OF GEOMETRIC FUNCTION TERMS DEFINED : 15                    
REMARK   3   TERM                          COUNT    WEIGHT   FUNCTION.          
REMARK   3    BOND LENGTHS              :   1576 ;   2.00 ;  HARMONIC           
REMARK   3    BOND ANGLES               :   2144 ;   2.00 ;  HARMONIC           
REMARK   3    TORSION ANGLES            :    534 ;   2.00 ;  SINUSOIDAL         
REMARK   3    TRIGONAL CARBON PLANES    :   NULL ;   NULL ;  NULL               
REMARK   3    GENERAL PLANES            :    272 ;   5.00 ;  HARMONIC           
REMARK   3    ISOTROPIC THERMAL FACTORS :   1576 ;  10.00 ;  HARMONIC           
REMARK   3    BAD NON-BONDED CONTACTS   :   NULL ;   NULL ;  NULL               
REMARK   3    IMPROPER TORSIONS         :   NULL ;   NULL ;  NULL               
REMARK   3    PSEUDOROTATION ANGLES     :   NULL ;   NULL ;  NULL               
REMARK   3    CHIRAL IMPROPER TORSION   :    196 ;   5.00 ;  SEMIHARMONIC       
REMARK   3    SUM OF OCCUPANCIES        :   NULL ;   NULL ;  NULL               
REMARK   3    UTILITY DISTANCES         :   NULL ;   NULL ;  NULL               
REMARK   3    UTILITY ANGLES            :   NULL ;   NULL ;  NULL               
REMARK   3    UTILITY TORSION           :   NULL ;   NULL ;  NULL               
REMARK   3    IDEAL-DIST CONTACT TERM   :   1209 ;   4.00 ;  SEMIHARMONIC       
REMARK   3                                                                      
REMARK   3   RMS DEVIATIONS FROM IDEAL VALUES.                                  
REMARK   3   BOND LENGTHS                       (A) : 0.008                     
REMARK   3   BOND ANGLES                  (DEGREES) : 0.96                      
REMARK   3   PEPTIDE OMEGA TORSION ANGLES (DEGREES) : 3.61                      
REMARK   3   OTHER TORSION ANGLES         (DEGREES) : 16.13                     
REMARK   3                                                                      
REMARK   3   SIMILARITY.                                                        
REMARK   3    NCS.                                                              
REMARK   3     NCS METHOD: NONE                                                 
REMARK   3    TARGET RESTRAINTS.                                                
REMARK   3     TARGET REPRESENTATION : NONE                                     
REMARK   3     TARGET STRUCTURE : NULL                                          
REMARK   3                                                                      
REMARK   3  TLS DETAILS.                                                        
REMARK   3   NUMBER OF TLS GROUPS  :            2                               
REMARK   3                                                                      
REMARK   3   TLS GROUP :            1                                           
REMARK   3    SET : { A|* }                                                     
REMARK   3    ORIGIN FOR THE GROUP (A):  -13.7307   -1.6780  -19.4416           
REMARK   3    T TENSOR                                                          
REMARK   3     T11:    0.0630 T22:    0.0792                                    
REMARK   3     T33:   -0.1843 T12:    0.2809                                    
REMARK   3     T13:    0.1363 T23:    0.1361                                    
REMARK   3    L TENSOR                                                          
REMARK   3     L11:    2.6051 L22:    3.2855                                    
REMARK   3     L33:    3.0147 L12:   -1.6991                                    
REMARK   3     L13:    0.4900 L23:    0.7851                                    
REMARK   3    S TENSOR                                                          
REMARK   3     S11:    0.5583 S12:    0.5471 S13:    0.4309                     
REMARK   3     S21:   -0.4826 S22:   -0.5302 S23:   -0.3416                     
REMARK   3     S31:    0.0459 S32:    0.5061 S33:   -0.0281                     
REMARK   3                                                                      
REMARK   3   TLS GROUP :            2                                           
REMARK   3    SET : { B|* }                                                     
REMARK   3    ORIGIN FOR THE GROUP (A):  -18.3409    0.8241  -15.6720           
REMARK   3    T TENSOR                                                          
REMARK   3     T11:    0.1275 T22:    0.0736                                    
REMARK   3     T33:   -0.0458 T12:    0.2313                                    
REMARK   3     T13:    0.0571 T23:    0.0521                                    
REMARK   3    L TENSOR                                                          
REMARK   3     L11:    1.6392 L22:    1.0557                                    
REMARK   3     L33:    1.6425 L12:   -1.1927                                    
REMARK   3     L13:    0.7830 L23:   -0.2860                                    
REMARK   3    S TENSOR                                                          
REMARK   3     S11:    0.4774 S12:    0.2626 S13:    0.2192                     
REMARK   3     S21:   -0.1587 S22:   -0.4409 S23:    0.0298                     
REMARK   3     S31:    0.1889 S32:    0.2292 S33:   -0.0365                     
REMARK   3                                                                      
REMARK   3  REFINEMENT NOTES.                                                   
REMARK   3   NUMBER OF REFINEMENT NOTES :   1                                   
REMARK   3   NOTE   1 : IDEAL-DIST CONTACT TERM CONTACT SETUP. ALL ATOMS        
REMARK   3               HAVE CCP4 ATOM TYPE FROM LIBRARY                       
REMARK   3
REMARK   3  OTHER REFINEMENT REMARKS: NULL
REMARK   3
REMARK 290                                                            
REMARK 290 CRYSTALLOGRAPHIC SYMMETRY                                  
REMARK 290 SYMMETRY OPERATORS FOR SPACE GROUP: P 43 2 2               
REMARK 290                                                            
REMARK 290      SYMOP   SYMMETRY                                      
REMARK 290     NNNMMM   OPERATOR                                      
REMARK 290       1555   X,Y,Z                                         
REMARK 290       2555   -X,-Y,1/2+Z                                   
REMARK 290       3555   -Y,X,3/4+Z                                    
REMARK 290       4555   Y,-X,1/4+Z                                    
REMARK 290       5555   -X,Y,-Z                                       
REMARK 290       6555   X,-Y,1/2-Z                                    
REMARK 290       7555   Y,X,1/4-Z                                     
REMARK 290       8555   -Y,-X,3/4-Z                                   
REMARK 290                                                            
REMARK 290     WHERE NNN -> OPERATOR NUMBER                           
REMARK 290           MMM -> TRANSLATION VECTOR                        
REMARK 290                                                            
REMARK 290 CRYSTALLOGRAPHIC SYMMETRY TRANSFORMATIONS                  
REMARK 290 THE FOLLOWING TRANSFORMATIONS OPERATE ON THE ATOM/HETATM   
REMARK 290 RECORDS IN THIS ENTRY TO PRODUCE CRYSTALLOGRAPHICALLY      
REMARK 290 RELATED MOLECULES.                                         
REMARK 290   SMTRY1   1  1.000000  0.000000  0.000000        0.00000
REMARK 290   SMTRY2   1  0.000000  1.000000  0.000000        0.00000
REMARK 290   SMTRY3   1  0.000000  0.000000  1.000000        0.00000
REMARK 290   SMTRY1   2 -1.000000  0.000000  0.000000        0.00000
REMARK 290   SMTRY2   2  0.000000 -1.000000  0.000000        0.00000
REMARK 290   SMTRY3   2  0.000000  0.000000  1.000000      108.02650
REMARK 290   SMTRY1   3  0.000000 -1.000000  0.000000        0.00000
REMARK 290   SMTRY2   3  1.000000  0.000000  0.000000        0.00000
REMARK 290   SMTRY3   3  0.000000  0.000000  1.000000      162.03975
REMARK 290   SMTRY1   4  0.000000  1.000000  0.000000        0.00000
REMARK 290   SMTRY2   4 -1.000000  0.000000  0.000000        0.00000
REMARK 290   SMTRY3   4  0.000000  0.000000  1.000000       54.01325
REMARK 290   SMTRY1   5 -1.000000  0.000000  0.000000        0.00000
REMARK 290   SMTRY2   5  0.000000  1.000000  0.000000        0.00000
REMARK 290   SMTRY3   5  0.000000  0.000000 -1.000000        0.00000
REMARK 290   SMTRY1   6  1.000000  0.000000  0.000000        0.00000
REMARK 290   SMTRY2   6  0.000000 -1.000000  0.000000        0.00000
REMARK 290   SMTRY3   6  0.000000  0.000000 -1.000000      108.02650
REMARK 290   SMTRY1   7  0.000000  1.000000  0.000000        0.00000
REMARK 290   SMTRY2   7  1.000000  0.000000  0.000000        0.00000
REMARK 290   SMTRY3   7  0.000000  0.000000 -1.000000       54.01325
REMARK 290   SMTRY1   8  0.000000 -1.000000  0.000000        0.00000
REMARK 290   SMTRY2   8 -1.000000  0.000000  0.000000        0.00000
REMARK 290   SMTRY3   8  0.000000  0.000000 -1.000000      162.03975
REMARK 290                                                            
REMARK 290 REMARK: NULL                                               
CRYST1   42.590   42.590  216.053  90.00  90.00  90.00 P 43 2 2                 


$$$$
Zx1325a_ligand
  PyMOL3.0          3D                             0

 22 24  0  0  0  0  0  0  0  0999 V2000
   -2.0630    6.7120  -16.2490 C   0  0  0  0  0  0  0  0  0  0  0  0
   -4.1040    6.7710  -17.5600 N   0  0  0  0  0  0  0  0  0  0  0  0
   -7.7340    6.0770  -14.5170 O   0  0  0  0  0  0  0  0  0  0  0  0
   -3.4590    6.2470  -16.5120 C   0  0  0  0  0  0  0  0  0  0  0  0
   -8.5290    4.0250  -13.9680 N   0  0  0  0  0  0  0  0  0  0  0  0
   -5.3470    6.3390  -17.7930 C   0  0  0  0  0  0  0  0  0  0  0  0
   -8.5920    3.6430  -10.3740 N   0  0  0  0  0  0  0  0  0  0  0  0
   -6.0060    5.4460  -16.9630 C   0  0  0  0  0  0  0  0  0  0  0  0
   -8.3340    4.9790  -10.5360 N   0  0  0  0  0  0  0  0  0  0  0  0
   -7.3550    4.8980  -17.2920 C   0  0  0  0  0  0  0  0  0  0  0  0
   -3.9690    5.3220  -15.6960 N   0  0  0  0  0  0  0  0  0  0  0  0
   -7.6570    4.5890  -18.6190 C   0  0  0  0  0  0  0  0  0  0  0  0
   -8.8620    4.0150  -18.9740 C   0  0  0  0  0  0  0  0  0  0  0  0
   -9.8170    3.7750  -18.0140 C   0  0  0  0  0  0  0  0  0  0  0  0
   -9.5390    4.0530  -16.6920 C   0  0  0  0  0  0  0  0  0  0  0  0
   -8.3360    4.6530  -16.3160 C   0  0  0  0  0  0  0  0  0  0  0  0
   -8.1750    4.9910  -14.8620 C   0  0  0  0  0  0  0  0  0  0  0  0
   -8.4840    4.1660  -12.5700 C   0  0  0  0  0  0  0  0  0  0  0  0
   -8.6810    3.1670  -11.6080 C   0  0  0  0  0  0  0  0  0  0  0  0
   -8.1810    5.8480   -9.3720 C   0  0  0  0  0  0  0  0  0  0  0  0
   -8.2840    5.3330  -11.8430 C   0  0  0  0  0  0  0  0  0  0  0  0
   -5.2090    4.9040  -15.9630 C   0  0  0  0  0  0  0  0  0  0  0  0
  1  4  1  0  0  0  0
  2  6  4  0  0  0  0
  2  4  4  0  0  0  0
  4 11  4  0  0  0  0
  5 18  1  0  0  0  0
  6  8  4  0  0  0  0
  7  9  4  0  0  0  0
  8 10  1  0  0  0  0
  8 22  4  0  0  0  0
  9 20  1  0  0  0  0
  9 21  4  0  0  0  0
 10 12  4  0  0  0  0
 10 16  4  0  0  0  0
 12 13  4  0  0  0  0
 13 14  4  0  0  0  0
 14 15  4  0  0  0  0
 15 16  4  0  0  0  0
 16 17  1  0  0  0  0
  3 17  2  0  0  0  0
  5 17  1  0  0  0  0
 18 19  4  0  0  0  0
 18 21  4  0  0  0  0
  7 19  4  0  0  0  0
 11 22  4  0  0  0  0
M  END
>  <pdb_header>
COMPND    XX01ZVNS2B-x1325_B_203_XX01ZVNS2B-x1291+B+301+1


$$$$
Zx1333a
  PyMOL3.0          3D                             0

 28 29  0  0  0  0  0  0  0  0999 V2000
   -8.5880    1.7170   -6.9580 C   0  0  0  0  0  0  0  0  0  0  0  0
   -8.1530    2.6130   -8.0270 N   0  0  0  0  0  0  0  0  0  0  0  0
   -4.7430    5.8690  -17.9640 O   0  0  0  0  0  0  0  0  0  0  0  0
   -7.1200    1.9830   -8.8540 C   0  0  0  0  0  0  0  0  0  0  0  0
   -7.9540    4.5960  -14.2150 N   0  0  0  0  0  0  0  0  0  0  0  0
   -3.8340    7.8190  -20.2110 O   0  0  0  0  0  0  0  0  0  0  0  0
   -9.2890    3.0320   -8.8470 C   0  0  0  0  0  0  0  0  0  0  0  0
   -5.7200    5.1030  -19.8390 N   0  0  0  0  0  0  0  0  0  0  0  0
   -8.2070    5.4710   -7.8670 O   0  0  0  0  0  0  0  0  0  0  0  0
   -8.9450    4.1900   -9.7440 C   0  0  0  0  0  0  0  0  0  0  0  0
   -9.1450    4.1140  -11.1180 C   0  0  0  0  0  0  0  0  0  0  0  0
   -8.8390    5.1770  -11.9550 C   0  0  0  0  0  0  0  0  0  0  0  0
   -9.0770    5.0810  -13.4370 C   0  0  0  0  0  0  0  0  0  0  0  0
   -7.9900    4.5840  -15.5950 C   0  0  0  0  0  0  0  0  0  0  0  0
   -9.1610    4.1980  -16.2300 C   0  0  0  0  0  0  0  0  0  0  0  0
   -9.2050    4.1850  -17.6090 C   0  0  0  0  0  0  0  0  0  0  0  0
   -8.1140    4.5520  -18.3720 C   0  0  0  0  0  0  0  0  0  0  0  0
   -6.9320    4.9470  -17.7430 C   0  0  0  0  0  0  0  0  0  0  0  0
   -5.7090    5.3500  -18.5280 C   0  0  0  0  0  0  0  0  0  0  0  0
   -4.7340    5.5930  -20.8480 C   0  0  0  0  0  0  0  0  0  0  0  0
   -3.3250    5.1490  -20.4460 C   0  0  0  0  0  0  0  0  0  0  0  0
   -5.1000    4.9850  -22.2030 C   0  0  0  0  0  0  0  0  0  0  0  0
   -4.8270    7.1230  -20.9520 C   0  0  0  0  0  0  0  0  0  0  0  0
   -6.8740    4.9590  -16.3490 C   0  0  0  0  0  0  0  0  0  0  0  0
   -8.3220    6.3340  -11.3970 C   0  0  0  0  0  0  0  0  0  0  0  0
   -8.1080    6.4350  -10.0360 C   0  0  0  0  0  0  0  0  0  0  0  0
   -8.4160    5.3680   -9.2120 C   0  0  0  0  0  0  0  0  0  0  0  0
  -10.7280    3.6800  -18.3480 Cl  0  0  0  0  0  0  0  0  0  0  0  0
  1  2  1  0  0  0  0
  2  4  1  0  0  0  0
  2  7  1  0  0  0  0
  7 10  1  0  0  0  0
 10 11  4  0  0  0  0
 11 12  4  0  0  0  0
 12 13  1  0  0  0  0
  5 13  1  0  0  0  0
  5 14  1  0  0  0  0
 14 15  4  0  0  0  0
 15 16  4  0  0  0  0
 16 17  4  0  0  0  0
 16 28  1  0  0  0  0
 17 18  4  0  0  0  0
 18 19  1  0  0  0  0
 18 24  4  0  0  0  0
  3 19  2  0  0  0  0
  8 19  1  0  0  0  0
  8 20  1  0  0  0  0
 20 21  1  0  0  0  0
 20 22  1  0  0  0  0
 20 23  1  0  0  0  0
  6 23  1  0  0  0  0
 14 24  4  0  0  0  0
 12 25  4  0  0  0  0
 25 26  4  0  0  0  0
 26 27  4  0  0  0  0
  9 27  1  0  0  0  0
 10 27  4  0  0  0  0
M  END
>  <pdb_header>
HEADER    ----                                    07-NOV-23   XXXX              
TITLE     ---                                                                   
REMARK   3
REMARK   3 REFINEMENT.
REMARK   3   PROGRAM     : REFMAC 5.8.0267   
REMARK   3   AUTHORS     : MURSHUDOV,SKUBAK,LEBEDEV,PANNU,
REMARK   3                 STEINER,NICHOLLS,WINN,LONG,VAGIN
REMARK   3
REMARK   3    REFINEMENT TARGET : MAXIMUM LIKELIHOOD
REMARK   3
REMARK   3  DATA USED IN REFINEMENT.
REMARK   3   RESOLUTION RANGE HIGH (ANGSTROMS) :   1.66
REMARK   3   RESOLUTION RANGE LOW  (ANGSTROMS) :  42.44
REMARK   3   DATA CUTOFF            (SIGMA(F)) : NONE
REMARK   3   COMPLETENESS FOR RANGE        (%) :  99.47
REMARK   3   NUMBER OF REFLECTIONS             :   23104
REMARK   3
REMARK   3  FIT TO DATA USED IN REFINEMENT.
REMARK   3   CROSS-VALIDATION METHOD          : THROUGHOUT
REMARK   3   FREE R VALUE TEST SET SELECTION  : RANDOM
REMARK   3   R VALUE     (WORKING + TEST SET) : 0.25574
REMARK   3   R VALUE            (WORKING SET) :  0.25409
REMARK   3   FREE R VALUE                     :  0.28713
REMARK   3   FREE R VALUE TEST SET SIZE   (%) :  5.1
REMARK   3   FREE R VALUE TEST SET COUNT      :  1253
REMARK   3
REMARK   3  FIT IN THE HIGHEST RESOLUTION BIN.
REMARK   3   TOTAL NUMBER OF BINS USED           :      20
REMARK   3   BIN RESOLUTION RANGE HIGH           :    1.660
REMARK   3   BIN RESOLUTION RANGE LOW            :    1.703
REMARK   3   REFLECTION IN BIN     (WORKING SET) :     1561
REMARK   3   BIN COMPLETENESS (WORKING+TEST) (%) :    93.52
REMARK   3   BIN R VALUE           (WORKING SET) :    0.453
REMARK   3   BIN FREE R VALUE SET COUNT          :       99
REMARK   3   BIN FREE R VALUE                    :    0.408
REMARK   3
REMARK   3  NUMBER OF NON-HYDROGEN ATOMS USED IN REFINEMENT.
REMARK   3   ALL ATOMS                :     5492
REMARK   3
REMARK   3  B VALUES.
REMARK   3   FROM WILSON PLOT           (A**2) : NULL
REMARK   3   MEAN B VALUE      (OVERALL, A**2) :  42.040
REMARK   3   OVERALL ANISOTROPIC B VALUE.
REMARK   3    B11 (A**2) :    -0.58
REMARK   3    B22 (A**2) :    -0.58
REMARK   3    B33 (A**2) :     1.16
REMARK   3    B12 (A**2) :     0.00
REMARK   3    B13 (A**2) :     0.00
REMARK   3    B23 (A**2) :     0.00
REMARK   3
REMARK   3  ESTIMATED OVERALL COORDINATE ERROR.
REMARK   3   ESU BASED ON R VALUE                            (A):   0.946
REMARK   3   ESU BASED ON FREE R VALUE                       (A):   0.237
REMARK   3   ESU BASED ON MAXIMUM LIKELIHOOD                 (A):   0.449
REMARK   3   ESU FOR B VALUES BASED ON MAXIMUM LIKELIHOOD (A**2):  30.386
REMARK   3
REMARK   3 CORRELATION COEFFICIENTS.
REMARK   3   CORRELATION COEFFICIENT FO-FC      :   0.951
REMARK   3   CORRELATION COEFFICIENT FO-FC FREE :   0.931
REMARK   3
REMARK   3  RMS DEVIATIONS FROM IDEAL VALUES        COUNT    RMS    WEIGHT
REMARK   3   BOND LENGTHS REFINED ATOMS        (A):  9262 ; 0.019 ; 0.016
REMARK   3   BOND LENGTHS OTHERS               (A):  4761 ; 0.007 ; 0.016
REMARK   3   BOND ANGLES REFINED ATOMS   (DEGREES):  7442 ; 1.650 ; 1.635
REMARK   3   BOND ANGLES OTHERS          (DEGREES): 11126 ; 1.251 ; 1.597
REMARK   3   TORSION ANGLES, PERIOD 1    (DEGREES):   782 ; 7.897 ; 5.000
REMARK   3   TORSION ANGLES, PERIOD 2    (DEGREES):   262 ;35.476 ;24.389
REMARK   3   TORSION ANGLES, PERIOD 3    (DEGREES):   809 ;14.400 ;15.000
REMARK   3   TORSION ANGLES, PERIOD 4    (DEGREES):    22 ;16.917 ;15.000
REMARK   3   CHIRAL-CENTER RESTRAINTS       (A**3):   664 ; 0.062 ; 0.200
REMARK   3   GENERAL PLANES REFINED ATOMS      (A):  6855 ; 0.010 ; 0.020
REMARK   3   GENERAL PLANES OTHERS             (A):  1193 ; 0.005 ; 0.020
REMARK   3
REMARK   3  ISOTROPIC THERMAL FACTOR RESTRAINTS.     COUNT   RMS    WEIGHT
REMARK   3   MAIN-CHAIN BOND REFINED ATOMS  (A**2):  4974 ; 0.534 ; 1.520
REMARK   3   MAIN-CHAIN BOND OTHER ATOMS    (A**2):  4705 ; 0.544 ; 1.363
REMARK   3   MAIN-CHAIN ANGLE REFINED ATOMS (A**2):  3682 ; 1.334 ; 2.006
REMARK   3   MAIN-CHAIN ANGLE OTHER ATOMS (A**2)  :  3683 ; 1.335 ; 2.008
REMARK   3   SIDE-CHAIN BOND REFINED ATOMS  (A**2):  4286 ; 0.381 ; 1.457
REMARK   3   SIDE-CHAIN BOND OTHER ATOMS  (A**2)  :  4251 ; 0.380 ; 1.443
REMARK   3   SIDE-CHAIN ANGLE OTHER ATOMS (A**2)  :  3743 ; 0.909 ; 2.104
REMARK   3   LONG RANGE B REFINED ATOMS (A**2)    :  6182 ; 7.164 ;16.395
REMARK   3   LONG RANGE B OTHER ATOMS (A**2)      :  6149 ; 7.072 ;16.143
REMARK   3
REMARK   3  NCS RESTRAINTS STATISTICS
REMARK   3   NUMBER OF NCS GROUPS : NULL
REMARK   3
REMARK   3  TWIN DETAILS
REMARK   3   NUMBER OF TWIN DOMAINS  : NULL
REMARK   3
REMARK   3
REMARK   3  TLS DETAILS
REMARK   3   NUMBER OF TLS GROUPS  :    2
REMARK   3   ATOM RECORD CONTAINS SUM OF TLS AND RESIDUAL B FACTORS
REMARK   3
REMARK   3   TLS GROUP :     1
REMARK   3    NUMBER OF COMPONENTS GROUP :    1
REMARK   3    COMPONENTS        C SSSEQI   TO  C SSSEQI
REMARK   3    RESIDUE RANGE :   A    50        A    88
REMARK   3    ORIGIN FOR THE GROUP (A): -13.1192  -2.5744 -19.1583
REMARK   3    T TENSOR
REMARK   3      T11:   0.5224 T22:   0.4738
REMARK   3      T33:   0.1195 T12:   0.2105
REMARK   3      T13:   0.1190 T23:   0.0859
REMARK   3    L TENSOR
REMARK   3      L11:   0.7042 L22:   1.5090
REMARK   3      L33:   1.3195 L12:  -0.8066
REMARK   3      L13:   0.0759 L23:  -0.9109
REMARK   3    S TENSOR
REMARK   3      S11:   0.3272 S12:   0.2116 S13:   0.2039
REMARK   3      S21:  -0.3510 S22:  -0.3744 S23:  -0.1666
REMARK   3      S31:   0.2578 S32:   0.3142 S33:   0.0472
REMARK   3
REMARK   3   TLS GROUP :     2
REMARK   3    NUMBER OF COMPONENTS GROUP :    1
REMARK   3    COMPONENTS        C SSSEQI   TO  C SSSEQI
REMARK   3    RESIDUE RANGE :   B    16        B   302
REMARK   3    ORIGIN FOR THE GROUP (A): -17.7915  -0.0033 -15.7822
REMARK   3    T TENSOR
REMARK   3      T11:   0.4332 T22:   0.4192
REMARK   3      T33:   0.1028 T12:   0.1450
REMARK   3      T13:   0.0735 T23:   0.0379
REMARK   3    L TENSOR
REMARK   3      L11:   0.7031 L22:   0.3488
REMARK   3      L33:   0.4107 L12:  -0.1320
REMARK   3      L13:   0.4379 L23:  -0.1911
REMARK   3    S TENSOR
REMARK   3      S11:   0.2844 S12:   0.1845 S13:   0.1411
REMARK   3      S21:  -0.1483 S22:  -0.2691 S23:   0.0608
REMARK   3      S31:   0.1401 S32:   0.1399 S33:  -0.0152
REMARK   3
REMARK   3
REMARK   3  BULK SOLVENT MODELLING.
REMARK   3   METHOD USED :  MASK
REMARK   3   PARAMETERS FOR MASK CALCULATION
REMARK   3   VDW PROBE RADIUS   :   1.20
REMARK   3   ION PROBE RADIUS   :   0.80
REMARK   3   SHRINKAGE RADIUS   :   0.80
REMARK   3
REMARK   3  OTHER REFINEMENT REMARKS:
REMARK   3  HYDROGENS HAVE BEEN ADDED IN THE RIDING POSITIONS
REMARK   3  U VALUES      : WITH TLS ADDED
REMARK   3
CRYST1   42.400   42.400  215.420  90.00  90.00  90.00 P 43 2 2                 


$$$$
Zx1333a_ligand
  PyMOL3.0          3D                             0

 28 29  0  0  0  0  0  0  0  0999 V2000
  -10.7280    3.6800  -18.3480 Cl  0  0  0  0  0  0  0  0  0  0  0  0
   -8.5880    1.7170   -6.9580 C   0  0  0  0  0  0  0  0  0  0  0  0
   -8.1530    2.6130   -8.0270 N   0  0  0  0  0  0  0  0  0  0  0  0
   -4.7430    5.8690  -17.9640 O   0  0  0  0  0  0  0  0  0  0  0  0
   -7.1200    1.9830   -8.8540 C   0  0  0  0  0  0  0  0  0  0  0  0
   -7.9540    4.5960  -14.2150 N   0  0  0  0  0  0  0  0  0  0  0  0
   -3.8340    7.8190  -20.2110 O   0  0  0  0  0  0  0  0  0  0  0  0
   -9.2890    3.0320   -8.8470 C   0  0  0  0  0  0  0  0  0  0  0  0
   -5.7200    5.1030  -19.8390 N   0  0  0  0  0  0  0  0  0  0  0  0
   -8.2070    5.4710   -7.8670 O   0  0  0  0  0  0  0  0  0  0  0  0
   -8.9450    4.1900   -9.7440 C   0  0  0  0  0  0  0  0  0  0  0  0
   -9.1450    4.1140  -11.1180 C   0  0  0  0  0  0  0  0  0  0  0  0
   -8.8390    5.1770  -11.9550 C   0  0  0  0  0  0  0  0  0  0  0  0
   -9.0770    5.0810  -13.4370 C   0  0  0  0  0  0  0  0  0  0  0  0
   -7.9900    4.5840  -15.5950 C   0  0  0  0  0  0  0  0  0  0  0  0
   -9.1610    4.1980  -16.2300 C   0  0  0  0  0  0  0  0  0  0  0  0
   -9.2050    4.1850  -17.6090 C   0  0  0  0  0  0  0  0  0  0  0  0
   -8.1140    4.5520  -18.3720 C   0  0  0  0  0  0  0  0  0  0  0  0
   -6.9320    4.9470  -17.7430 C   0  0  0  0  0  0  0  0  0  0  0  0
   -5.7090    5.3500  -18.5280 C   0  0  0  0  0  0  0  0  0  0  0  0
   -4.7340    5.5930  -20.8480 C   0  0  0  0  0  0  0  0  0  0  0  0
   -3.3250    5.1490  -20.4460 C   0  0  0  0  0  0  0  0  0  0  0  0
   -5.1000    4.9850  -22.2030 C   0  0  0  0  0  0  0  0  0  0  0  0
   -4.8270    7.1230  -20.9520 C   0  0  0  0  0  0  0  0  0  0  0  0
   -6.8740    4.9590  -16.3490 C   0  0  0  0  0  0  0  0  0  0  0  0
   -8.3220    6.3340  -11.3970 C   0  0  0  0  0  0  0  0  0  0  0  0
   -8.1080    6.4350  -10.0360 C   0  0  0  0  0  0  0  0  0  0  0  0
   -8.4160    5.3680   -9.2120 C   0  0  0  0  0  0  0  0  0  0  0  0
  2  3  1  0  0  0  0
  3  5  1  0  0  0  0
  3  8  1  0  0  0  0
  6 15  1  0  0  0  0
  8 11  1  0  0  0  0
  9 21  1  0  0  0  0
 11 12  4  0  0  0  0
 11 28  4  0  0  0  0
 12 13  4  0  0  0  0
 13 14  1  0  0  0  0
 13 26  4  0  0  0  0
  6 14  1  0  0  0  0
 15 16  4  0  0  0  0
 15 25  4  0  0  0  0
 16 17  4  0  0  0  0
  1 17  1  0  0  0  0
 17 18  4  0  0  0  0
 18 19  4  0  0  0  0
 19 20  1  0  0  0  0
 19 25  4  0  0  0  0
  4 20  2  0  0  0  0
  9 20  1  0  0  0  0
 21 22  1  0  0  0  0
 21 23  1  0  0  0  0
 21 24  1  0  0  0  0
  7 24  1  0  0  0  0
 26 27  4  0  0  0  0
 27 28  4  0  0  0  0
 10 28  1  0  0  0  0
M  END
>  <pdb_header>
COMPND    XX01ZVNS2B-x1333_B_301_XX01ZVNS2B-x1291+B+301+1


$$$$
Zx1342a
  PyMOL3.0          3D                             0

 19 21  0  0  0  0  0  0  0  0999 V2000
   -8.3550    5.4710   -8.7400 C   0  0  0  0  0  0  0  0  0  0  0  0
   -8.5470    4.7210   -9.9720 N   0  0  0  0  0  0  0  0  0  0  0  0
   -7.5460    5.8430  -13.8910 O   0  0  0  0  0  0  0  0  0  0  0  0
   -8.5050    5.1670  -11.2390 C   0  0  0  0  0  0  0  0  0  0  0  0
   -8.8060    4.0080  -13.4550 N   0  0  0  0  0  0  0  0  0  0  0  0
   -8.7360    4.0700  -12.0540 C   0  0  0  0  0  0  0  0  0  0  0  0
   -6.4200    4.7080  -19.0200 N   0  0  0  0  0  0  0  0  0  0  0  0
   -8.1740    4.8710  -14.3010 C   0  0  0  0  0  0  0  0  0  0  0  0
   -8.7770    3.3910   -9.9320 N   0  0  0  0  0  0  0  0  0  0  0  0
   -8.2900    4.6110  -15.7790 C   0  0  0  0  0  0  0  0  0  0  0  0
   -9.4930    4.1700  -16.2670 C   0  0  0  0  0  0  0  0  0  0  0  0
   -9.6830    3.9110  -17.6360 C   0  0  0  0  0  0  0  0  0  0  0  0
   -8.6660    4.0940  -18.5200 C   0  0  0  0  0  0  0  0  0  0  0  0
   -7.4030    4.5440  -18.0760 C   0  0  0  0  0  0  0  0  0  0  0  0
   -5.2430    5.1280  -18.5930 C   0  0  0  0  0  0  0  0  0  0  0  0
   -4.9370    5.4170  -17.2500 C   0  0  0  0  0  0  0  0  0  0  0  0
   -5.9080    5.2560  -16.3020 C   0  0  0  0  0  0  0  0  0  0  0  0
   -7.2000    4.8100  -16.6890 C   0  0  0  0  0  0  0  0  0  0  0  0
   -8.8980    2.9980  -11.1910 C   0  0  0  0  0  0  0  0  0  0  0  0
  1  2  1  0  0  0  0
  2  9  4  0  0  0  0
  2  4  4  0  0  0  0
  4  6  4  0  0  0  0
  5  6  1  0  0  0  0
  3  8  2  0  0  0  0
  5  8  1  0  0  0  0
  8 10  1  0  0  0  0
 10 11  4  0  0  0  0
 11 12  4  0  0  0  0
 12 13  4  0  0  0  0
 13 14  4  0  0  0  0
  7 14  4  0  0  0  0
  7 15  4  0  0  0  0
 15 16  4  0  0  0  0
 16 17  4  0  0  0  0
 17 18  4  0  0  0  0
 10 18  4  0  0  0  0
 14 18  4  0  0  0  0
  6 19  4  0  0  0  0
  9 19  4  0  0  0  0
M  END
>  <pdb_header>
HEADER    ----                                    06-DEC-23   XXXX              
TITLE     ---                                                                   
REMARK   3
REMARK   3 REFINEMENT.
REMARK   3   PROGRAM     : REFMAC 5.8.0267   
REMARK   3   AUTHORS     : MURSHUDOV,SKUBAK,LEBEDEV,PANNU,
REMARK   3                 STEINER,NICHOLLS,WINN,LONG,VAGIN
REMARK   3
REMARK   3    REFINEMENT TARGET : MAXIMUM LIKELIHOOD
REMARK   3
REMARK   3  DATA USED IN REFINEMENT.
REMARK   3   RESOLUTION RANGE HIGH (ANGSTROMS) :   1.58
REMARK   3   RESOLUTION RANGE LOW  (ANGSTROMS) :  54.08
REMARK   3   DATA CUTOFF            (SIGMA(F)) : NONE
REMARK   3   COMPLETENESS FOR RANGE        (%) :  89.36
REMARK   3   NUMBER OF REFLECTIONS             :   24206
REMARK   3
REMARK   3  FIT TO DATA USED IN REFINEMENT.
REMARK   3   CROSS-VALIDATION METHOD          : THROUGHOUT
REMARK   3   FREE R VALUE TEST SET SELECTION  : RANDOM
REMARK   3   R VALUE     (WORKING + TEST SET) : 0.25489
REMARK   3   R VALUE            (WORKING SET) :  0.25193
REMARK   3   FREE R VALUE                     :  0.31093
REMARK   3   FREE R VALUE TEST SET SIZE   (%) :  5.1
REMARK   3   FREE R VALUE TEST SET COUNT      :  1306
REMARK   3
REMARK   3  FIT IN THE HIGHEST RESOLUTION BIN.
REMARK   3   TOTAL NUMBER OF BINS USED           :      20
REMARK   3   BIN RESOLUTION RANGE HIGH           :    1.580
REMARK   3   BIN RESOLUTION RANGE LOW            :    1.621
REMARK   3   REFLECTION IN BIN     (WORKING SET) :      141
REMARK   3   BIN COMPLETENESS (WORKING+TEST) (%) :     7.26
REMARK   3   BIN R VALUE           (WORKING SET) :    0.906
REMARK   3   BIN FREE R VALUE SET COUNT          :        7
REMARK   3   BIN FREE R VALUE                    :    0.721
REMARK   3
REMARK   3  NUMBER OF NON-HYDROGEN ATOMS USED IN REFINEMENT.
REMARK   3   ALL ATOMS                :     3911
REMARK   3
REMARK   3  B VALUES.
REMARK   3   FROM WILSON PLOT           (A**2) : NULL
REMARK   3   MEAN B VALUE      (OVERALL, A**2) :  44.504
REMARK   3   OVERALL ANISOTROPIC B VALUE.
REMARK   3    B11 (A**2) :     1.51
REMARK   3    B22 (A**2) :     1.51
REMARK   3    B33 (A**2) :    -3.02
REMARK   3    B12 (A**2) :    -0.00
REMARK   3    B13 (A**2) :    -0.00
REMARK   3    B23 (A**2) :    -0.00
REMARK   3
REMARK   3  ESTIMATED OVERALL COORDINATE ERROR.
REMARK   3   ESU BASED ON R VALUE                            (A):   0.284
REMARK   3   ESU BASED ON FREE R VALUE                       (A):   0.209
REMARK   3   ESU BASED ON MAXIMUM LIKELIHOOD                 (A):   0.331
REMARK   3   ESU FOR B VALUES BASED ON MAXIMUM LIKELIHOOD (A**2):  11.039
REMARK   3
REMARK   3 CORRELATION COEFFICIENTS.
REMARK   3   CORRELATION COEFFICIENT FO-FC      :   0.955
REMARK   3   CORRELATION COEFFICIENT FO-FC FREE :   0.933
REMARK   3
REMARK   3  RMS DEVIATIONS FROM IDEAL VALUES        COUNT    RMS    WEIGHT
REMARK   3   BOND LENGTHS REFINED ATOMS        (A):  5288 ; 0.007 ; 0.015
REMARK   3   BOND LENGTHS OTHERS               (A):  3360 ; 0.001 ; 0.015
REMARK   3   BOND ANGLES REFINED ATOMS   (DEGREES):  5237 ; 1.471 ; 1.642
REMARK   3   BOND ANGLES OTHERS          (DEGREES):  7830 ; 1.169 ; 1.597
REMARK   3   TORSION ANGLES, PERIOD 1    (DEGREES):   541 ; 7.161 ; 5.000
REMARK   3   TORSION ANGLES, PERIOD 2    (DEGREES):   197 ;34.354 ;23.147
REMARK   3   TORSION ANGLES, PERIOD 3    (DEGREES):   577 ;16.358 ;15.000
REMARK   3   TORSION ANGLES, PERIOD 4    (DEGREES):    25 ;14.039 ;15.000
REMARK   3   CHIRAL-CENTER RESTRAINTS       (A**3):   456 ; 0.054 ; 0.200
REMARK   3   GENERAL PLANES REFINED ATOMS      (A):  4772 ; 0.007 ; 0.020
REMARK   3   GENERAL PLANES OTHERS             (A):   866 ; 0.004 ; 0.020
REMARK   3
REMARK   3  ISOTROPIC THERMAL FACTOR RESTRAINTS.     COUNT   RMS    WEIGHT
REMARK   3   MAIN-CHAIN BOND REFINED ATOMS  (A**2):  2783 ; 2.331 ; 4.365
REMARK   3   MAIN-CHAIN BOND OTHER ATOMS    (A**2):  2643 ; 2.378 ; 4.379
REMARK   3   MAIN-CHAIN ANGLE REFINED ATOMS (A**2):  2553 ; 4.204 ; 6.532
REMARK   3   MAIN-CHAIN ANGLE OTHER ATOMS (A**2)  :  2554 ; 4.205 ; 6.534
REMARK   3   SIDE-CHAIN BOND REFINED ATOMS  (A**2):  2505 ; 2.561 ; 4.769
REMARK   3   SIDE-CHAIN BOND OTHER ATOMS  (A**2)  :  2479 ; 2.560 ; 4.755
REMARK   3   SIDE-CHAIN ANGLE OTHER ATOMS (A**2)  :  2661 ; 4.548 ; 6.931
REMARK   3   LONG RANGE B REFINED ATOMS (A**2)    :  4411 ; 7.957 ;50.657
REMARK   3   LONG RANGE B OTHER ATOMS (A**2)      :  4367 ; 7.841 ;50.565
REMARK   3
REMARK   3  NCS RESTRAINTS STATISTICS
REMARK   3   NUMBER OF NCS GROUPS : NULL
REMARK   3
REMARK   3  TWIN DETAILS
REMARK   3   NUMBER OF TWIN DOMAINS  : NULL
REMARK   3
REMARK   3
REMARK   3  TLS DETAILS
REMARK   3   NUMBER OF TLS GROUPS  : NULL
REMARK   3
REMARK   3
REMARK   3  BULK SOLVENT MODELLING.
REMARK   3   METHOD USED :  MASK
REMARK   3   PARAMETERS FOR MASK CALCULATION
REMARK   3   VDW PROBE RADIUS   :   1.20
REMARK   3   ION PROBE RADIUS   :   0.80
REMARK   3   SHRINKAGE RADIUS   :   0.80
REMARK   3
REMARK   3  OTHER REFINEMENT REMARKS:
REMARK   3  HYDROGENS HAVE BEEN ADDED IN THE RIDING POSITIONS
REMARK   3  U VALUES      : REFINED INDIVIDUALLY
REMARK   3
CRYST1   42.549   42.549  216.320  90.00  90.00  90.00 P 43 2 2                 


$$$$
Zx1342a_ligand
  PyMOL3.0          3D                             0

 19 21  0  0  0  0  0  0  0  0999 V2000
   -8.3550    5.4710   -8.7400 C   0  0  0  0  0  0  0  0  0  0  0  0
   -8.5470    4.7210   -9.9720 N   0  0  0  0  0  0  0  0  0  0  0  0
   -7.5460    5.8430  -13.8910 O   0  0  0  0  0  0  0  0  0  0  0  0
   -8.5050    5.1670  -11.2390 C   0  0  0  0  0  0  0  0  0  0  0  0
   -8.8060    4.0080  -13.4550 N   0  0  0  0  0  0  0  0  0  0  0  0
   -8.7360    4.0700  -12.0540 C   0  0  0  0  0  0  0  0  0  0  0  0
   -6.4200    4.7080  -19.0200 N   0  0  0  0  0  0  0  0  0  0  0  0
   -8.1740    4.8710  -14.3010 C   0  0  0  0  0  0  0  0  0  0  0  0
   -8.7770    3.3910   -9.9320 N   0  0  0  0  0  0  0  0  0  0  0  0
   -8.2900    4.6110  -15.7790 C   0  0  0  0  0  0  0  0  0  0  0  0
   -9.4930    4.1700  -16.2670 C   0  0  0  0  0  0  0  0  0  0  0  0
   -9.6830    3.9110  -17.6360 C   0  0  0  0  0  0  0  0  0  0  0  0
   -8.6660    4.0940  -18.5200 C   0  0  0  0  0  0  0  0  0  0  0  0
   -7.4030    4.5440  -18.0760 C   0  0  0  0  0  0  0  0  0  0  0  0
   -5.2430    5.1280  -18.5930 C   0  0  0  0  0  0  0  0  0  0  0  0
   -4.9370    5.4170  -17.2500 C   0  0  0  0  0  0  0  0  0  0  0  0
   -5.9080    5.2560  -16.3020 C   0  0  0  0  0  0  0  0  0  0  0  0
   -7.2000    4.8100  -16.6890 C   0  0  0  0  0  0  0  0  0  0  0  0
   -8.8980    2.9980  -11.1910 C   0  0  0  0  0  0  0  0  0  0  0  0
  1  2  1  0  0  0  0
  2  4  4  0  0  0  0
  2  9  4  0  0  0  0
  4  6  4  0  0  0  0
  5  8  1  0  0  0  0
  5  6  1  0  0  0  0
  6 19  4  0  0  0  0
  7 15  4  0  0  0  0
  3  8  2  0  0  0  0
  8 10  1  0  0  0  0
 10 11  4  0  0  0  0
 10 18  4  0  0  0  0
 11 12  4  0  0  0  0
 12 13  4  0  0  0  0
 13 14  4  0  0  0  0
  7 14  4  0  0  0  0
 14 18  4  0  0  0  0
 15 16  4  0  0  0  0
 16 17  4  0  0  0  0
 17 18  4  0  0  0  0
  9 19  4  0  0  0  0
M  END
>  <pdb_header>
COMPND    XX01ZVNS2B-x1342_B_301_XX01ZVNS2B-x1291+B+301+1


$$$$
Zx1390a
  PyMOL3.0          3D                             0

 29 32  0  0  0  0  0  0  0  0999 V2000
   -7.8070    8.6760  -13.3960 C   0  0  0  0  0  0  0  0  0  0  0  0
   -8.4240    3.9060   -8.8190 N   0  0  0  0  0  0  0  0  0  0  0  0
  -10.0030    7.4560  -14.0670 O   0  0  0  0  0  0  0  0  0  0  0  0
   -9.4010    8.1050  -12.9380 S   0  0  0  0  0  0  0  0  0  0  0  0
   -9.1000    6.8590  -11.7150 C   0  0  0  0  0  0  0  0  0  0  0  0
   -9.2470    2.5180   -6.3310 N   0  0  0  0  0  0  0  0  0  0  0  0
  -10.1150    9.1900  -12.3370 O   0  0  0  0  0  0  0  0  0  0  0  0
   -9.1690    7.1870  -10.3660 C   0  0  0  0  0  0  0  0  0  0  0  0
   -8.7360    5.1800  -13.4540 N   0  0  0  0  0  0  0  0  0  0  0  0
   -6.6040    5.8500  -13.7890 O   0  0  0  0  0  0  0  0  0  0  0  0
   -8.9500    6.2180   -9.3990 C   0  0  0  0  0  0  0  0  0  0  0  0
   -5.6840    4.4410  -18.7190 N   0  0  0  0  0  0  0  0  0  0  0  0
   -8.6430    4.8970   -9.7660 C   0  0  0  0  0  0  0  0  0  0  0  0
   -7.9870    4.2840   -7.4690 C   0  0  0  0  0  0  0  0  0  0  0  0
   -9.0530    3.9600   -6.4420 C   0  0  0  0  0  0  0  0  0  0  0  0
   -9.1460    1.8550   -7.6340 C   0  0  0  0  0  0  0  0  0  0  0  0
   -9.3760    2.7910   -8.8090 C   0  0  0  0  0  0  0  0  0  0  0  0
   -8.5850    4.5690  -11.1240 C   0  0  0  0  0  0  0  0  0  0  0  0
   -8.8200    5.5390  -12.0900 C   0  0  0  0  0  0  0  0  0  0  0  0
   -7.6480    5.3950  -14.2340 C   0  0  0  0  0  0  0  0  0  0  0  0
   -7.7790    5.0830  -15.6980 C   0  0  0  0  0  0  0  0  0  0  0  0
   -9.0160    5.0240  -16.2910 C   0  0  0  0  0  0  0  0  0  0  0  0
   -9.1510    4.7620  -17.6710 C   0  0  0  0  0  0  0  0  0  0  0  0
   -8.0490    4.5760  -18.4520 C   0  0  0  0  0  0  0  0  0  0  0  0
   -6.7560    4.6440  -17.8910 C   0  0  0  0  0  0  0  0  0  0  0  0
   -4.4800    4.5010  -18.1800 C   0  0  0  0  0  0  0  0  0  0  0  0
   -4.2280    4.7560  -16.8190 C   0  0  0  0  0  0  0  0  0  0  0  0
   -5.2840    4.9530  -15.9820 C   0  0  0  0  0  0  0  0  0  0  0  0
   -6.6070    4.8960  -16.4950 C   0  0  0  0  0  0  0  0  0  0  0  0
  1  4  1  0  0  0  0
  3  4  2  0  0  0  0
  4  5  1  0  0  0  0
  5  8  4  0  0  0  0
  4  7  2  0  0  0  0
  8 11  4  0  0  0  0
 11 13  4  0  0  0  0
  2 13  1  0  0  0  0
  2 14  1  0  0  0  0
 14 15  1  0  0  0  0
  6 15  1  0  0  0  0
  6 16  1  0  0  0  0
 16 17  1  0  0  0  0
  2 17  1  0  0  0  0
 13 18  4  0  0  0  0
 18 19  4  0  0  0  0
  5 19  4  0  0  0  0
  9 19  1  0  0  0  0
  9 20  1  0  0  0  0
 10 20  2  0  0  0  0
 20 21  1  0  0  0  0
 21 22  4  0  0  0  0
 21 29  4  0  0  0  0
 22 23  4  0  0  0  0
 23 24  4  0  0  0  0
 24 25  4  0  0  0  0
 12 25  4  0  0  0  0
 25 29  4  0  0  0  0
 12 26  4  0  0  0  0
 26 27  4  0  0  0  0
 27 28  4  0  0  0  0
 28 29  4  0  0  0  0
M  END
>  <pdb_header>
HEADER    ----                                    06-DEC-23   XXXX              
TITLE     ---                                                                   
REMARK   3
REMARK   3 REFINEMENT.
REMARK   3   PROGRAM     : REFMAC 5.8.0267   
REMARK   3   AUTHORS     : MURSHUDOV,SKUBAK,LEBEDEV,PANNU,
REMARK   3                 STEINER,NICHOLLS,WINN,LONG,VAGIN
REMARK   3
REMARK   3    REFINEMENT TARGET : MAXIMUM LIKELIHOOD
REMARK   3
REMARK   3  DATA USED IN REFINEMENT.
REMARK   3   RESOLUTION RANGE HIGH (ANGSTROMS) :   1.91
REMARK   3   RESOLUTION RANGE LOW  (ANGSTROMS) :  42.24
REMARK   3   DATA CUTOFF            (SIGMA(F)) : NONE
REMARK   3   COMPLETENESS FOR RANGE        (%) :  99.55
REMARK   3   NUMBER OF REFLECTIONS             :   15346
REMARK   3
REMARK   3  FIT TO DATA USED IN REFINEMENT.
REMARK   3   CROSS-VALIDATION METHOD          : THROUGHOUT
REMARK   3   FREE R VALUE TEST SET SELECTION  : RANDOM
REMARK   3   R VALUE     (WORKING + TEST SET) : 0.23152
REMARK   3   R VALUE            (WORKING SET) :  0.22835
REMARK   3   FREE R VALUE                     :  0.29153
REMARK   3   FREE R VALUE TEST SET SIZE   (%) :  4.8
REMARK   3   FREE R VALUE TEST SET COUNT      :   781
REMARK   3
REMARK   3  FIT IN THE HIGHEST RESOLUTION BIN.
REMARK   3   TOTAL NUMBER OF BINS USED           :      20
REMARK   3   BIN RESOLUTION RANGE HIGH           :    1.910
REMARK   3   BIN RESOLUTION RANGE LOW            :    1.960
REMARK   3   REFLECTION IN BIN     (WORKING SET) :     1044
REMARK   3   BIN COMPLETENESS (WORKING+TEST) (%) :    96.25
REMARK   3   BIN R VALUE           (WORKING SET) :    0.478
REMARK   3   BIN FREE R VALUE SET COUNT          :       61
REMARK   3   BIN FREE R VALUE                    :    0.526
REMARK   3
REMARK   3  NUMBER OF NON-HYDROGEN ATOMS USED IN REFINEMENT.
REMARK   3   ALL ATOMS                :     1909
REMARK   3
REMARK   3  B VALUES.
REMARK   3   FROM WILSON PLOT           (A**2) : NULL
REMARK   3   MEAN B VALUE      (OVERALL, A**2) :  75.691
REMARK   3   OVERALL ANISOTROPIC B VALUE.
REMARK   3    B11 (A**2) :     1.36
REMARK   3    B22 (A**2) :     1.36
REMARK   3    B33 (A**2) :    -2.72
REMARK   3    B12 (A**2) :    -0.00
REMARK   3    B13 (A**2) :    -0.00
REMARK   3    B23 (A**2) :    -0.00
REMARK   3
REMARK   3  ESTIMATED OVERALL COORDINATE ERROR.
REMARK   3   ESU BASED ON R VALUE                            (A):   0.221
REMARK   3   ESU BASED ON FREE R VALUE                       (A):   0.200
REMARK   3   ESU BASED ON MAXIMUM LIKELIHOOD                 (A):   0.346
REMARK   3   ESU FOR B VALUES BASED ON MAXIMUM LIKELIHOOD (A**2):  24.070
REMARK   3
REMARK   3 CORRELATION COEFFICIENTS.
REMARK   3   CORRELATION COEFFICIENT FO-FC      :   0.967
REMARK   3   CORRELATION COEFFICIENT FO-FC FREE :   0.938
REMARK   3
REMARK   3  RMS DEVIATIONS FROM IDEAL VALUES        COUNT    RMS    WEIGHT
REMARK   3   BOND LENGTHS REFINED ATOMS        (A):  2024 ; 0.010 ; 0.013
REMARK   3   BOND LENGTHS OTHERS               (A):  1679 ; 0.001 ; 0.015
REMARK   3   BOND ANGLES REFINED ATOMS   (DEGREES):  2460 ; 1.633 ; 1.636
REMARK   3   BOND ANGLES OTHERS          (DEGREES):  3864 ; 1.266 ; 1.589
REMARK   3   TORSION ANGLES, PERIOD 1    (DEGREES):   232 ; 7.701 ; 5.000
REMARK   3   TORSION ANGLES, PERIOD 2    (DEGREES):    80 ;31.916 ;22.500
REMARK   3   TORSION ANGLES, PERIOD 3    (DEGREES):   277 ;16.501 ;15.000
REMARK   3   TORSION ANGLES, PERIOD 4    (DEGREES):    10 ;20.185 ;15.000
REMARK   3   CHIRAL-CENTER RESTRAINTS       (A**3):   218 ; 0.075 ; 0.200
REMARK   3   GENERAL PLANES REFINED ATOMS      (A):  2091 ; 0.008 ; 0.020
REMARK   3   GENERAL PLANES OTHERS             (A):   415 ; 0.002 ; 0.020
REMARK   3
REMARK   3  ISOTROPIC THERMAL FACTOR RESTRAINTS.     COUNT   RMS    WEIGHT
REMARK   3   MAIN-CHAIN BOND REFINED ATOMS  (A**2):  1010 ; 2.110 ; 3.723
REMARK   3   MAIN-CHAIN BOND OTHER ATOMS    (A**2):   935 ; 2.192 ; 3.440
REMARK   3   MAIN-CHAIN ANGLE REFINED ATOMS (A**2):  1128 ; 3.682 ; 5.075
REMARK   3   MAIN-CHAIN ANGLE OTHER ATOMS (A**2)  :  1129 ; 3.681 ; 5.080
REMARK   3   SIDE-CHAIN BOND REFINED ATOMS  (A**2):  1013 ; 2.358 ; 3.823
REMARK   3   SIDE-CHAIN BOND OTHER ATOMS  (A**2)  :  1014 ; 2.356 ; 3.830
REMARK   3   SIDE-CHAIN ANGLE OTHER ATOMS (A**2)  :  1333 ; 3.995 ; 5.413
REMARK   3   LONG RANGE B REFINED ATOMS (A**2)    :  2022 ;11.041 ;38.139
REMARK   3   LONG RANGE B OTHER ATOMS (A**2)      :  2010 ;10.855 ;37.824
REMARK   3
REMARK   3  NCS RESTRAINTS STATISTICS
REMARK   3   NUMBER OF NCS GROUPS : NULL
REMARK   3
REMARK   3  TWIN DETAILS
REMARK   3   NUMBER OF TWIN DOMAINS  : NULL
REMARK   3
REMARK   3
REMARK   3  TLS DETAILS
REMARK   3   NUMBER OF TLS GROUPS  :    2
REMARK   3   ATOM RECORD CONTAINS SUM OF TLS AND RESIDUAL B FACTORS
REMARK   3
REMARK   3   TLS GROUP :     1
REMARK   3    NUMBER OF COMPONENTS GROUP :    1
REMARK   3    COMPONENTS        C SSSEQI   TO  C SSSEQI
REMARK   3    RESIDUE RANGE :   A    50        A    88
REMARK   3    ORIGIN FOR THE GROUP (A): -12.8092  -2.6831 -19.1282
REMARK   3    T TENSOR
REMARK   3      T11:   0.4904 T22:   0.6578
REMARK   3      T33:   0.0571 T12:   0.3349
REMARK   3      T13:   0.0433 T23:   0.0812
REMARK   3    L TENSOR
REMARK   3      L11:   1.8818 L22:   1.8228
REMARK   3      L33:   1.4971 L12:   0.4540
REMARK   3      L13:  -1.3884 L23:   0.3347
REMARK   3    S TENSOR
REMARK   3      S11:   0.3108 S12:   0.0587 S13:   0.1586
REMARK   3      S21:  -0.2997 S22:  -0.1777 S23:  -0.0948
REMARK   3      S31:  -0.2996 S32:   0.2352 S33:  -0.1331
REMARK   3
REMARK   3   TLS GROUP :     2
REMARK   3    NUMBER OF COMPONENTS GROUP :    1
REMARK   3    COMPONENTS        C SSSEQI   TO  C SSSEQI
REMARK   3    RESIDUE RANGE :   B    16        B   303
REMARK   3    ORIGIN FOR THE GROUP (A): -17.6573  -0.0914 -15.8897
REMARK   3    T TENSOR
REMARK   3      T11:   0.6500 T22:   0.6837
REMARK   3      T33:   0.2129 T12:   0.3361
REMARK   3      T13:   0.1753 T23:  -0.0304
REMARK   3    L TENSOR
REMARK   3      L11:   0.7187 L22:   0.3510
REMARK   3      L33:   1.3454 L12:  -0.0306
REMARK   3      L13:   0.7508 L23:  -0.0544
REMARK   3    S TENSOR
REMARK   3      S11:   0.4040 S12:   0.1182 S13:   0.2340
REMARK   3      S21:  -0.1158 S22:  -0.4288 S23:   0.1174
REMARK   3      S31:   0.2693 S32:   0.1710 S33:   0.0248
REMARK   3
REMARK   3
REMARK   3  BULK SOLVENT MODELLING.
REMARK   3   METHOD USED :  MASK
REMARK   3   PARAMETERS FOR MASK CALCULATION
REMARK   3   VDW PROBE RADIUS   :   1.20
REMARK   3   ION PROBE RADIUS   :   0.80
REMARK   3   SHRINKAGE RADIUS   :   0.80
REMARK   3
REMARK   3  OTHER REFINEMENT REMARKS:
REMARK   3  HYDROGENS HAVE BEEN ADDED IN THE RIDING POSITIONS
REMARK   3  U VALUES      : WITH TLS ADDED
REMARK   3
CRYST1   42.200   42.200  216.120  90.00  90.00  90.00 P 43 2 2                 


$$$$
Zx1390a_ligand
  PyMOL3.0          3D                             0

 29 32  0  0  0  0  0  0  0  0999 V2000
   -7.8070    8.6760  -13.3960 C   0  0  0  0  0  0  0  0  0  0  0  0
   -8.4240    3.9060   -8.8190 N   0  0  0  0  0  0  0  0  0  0  0  0
  -10.0030    7.4560  -14.0670 O   0  0  0  0  0  0  0  0  0  0  0  0
   -9.4010    8.1050  -12.9380 S   0  0  0  0  0  0  0  0  0  0  0  0
   -9.1000    6.8590  -11.7150 C   0  0  0  0  0  0  0  0  0  0  0  0
   -9.2470    2.5180   -6.3310 N   0  0  0  0  0  0  0  0  0  0  0  0
  -10.1150    9.1900  -12.3370 O   0  0  0  0  0  0  0  0  0  0  0  0
   -9.1690    7.1870  -10.3660 C   0  0  0  0  0  0  0  0  0  0  0  0
   -8.7360    5.1800  -13.4540 N   0  0  0  0  0  0  0  0  0  0  0  0
   -6.6040    5.8500  -13.7890 O   0  0  0  0  0  0  0  0  0  0  0  0
   -8.9500    6.2180   -9.3990 C   0  0  0  0  0  0  0  0  0  0  0  0
   -5.6840    4.4410  -18.7190 N   0  0  0  0  0  0  0  0  0  0  0  0
   -8.6430    4.8970   -9.7660 C   0  0  0  0  0  0  0  0  0  0  0  0
   -7.9870    4.2840   -7.4690 C   0  0  0  0  0  0  0  0  0  0  0  0
   -9.0530    3.9600   -6.4420 C   0  0  0  0  0  0  0  0  0  0  0  0
   -9.1460    1.8550   -7.6340 C   0  0  0  0  0  0  0  0  0  0  0  0
   -9.3760    2.7910   -8.8090 C   0  0  0  0  0  0  0  0  0  0  0  0
   -8.5850    4.5690  -11.1240 C   0  0  0  0  0  0  0  0  0  0  0  0
   -8.8200    5.5390  -12.0900 C   0  0  0  0  0  0  0  0  0  0  0  0
   -7.6480    5.3950  -14.2340 C   0  0  0  0  0  0  0  0  0  0  0  0
   -7.7790    5.0830  -15.6980 C   0  0  0  0  0  0  0  0  0  0  0  0
   -9.0160    5.0240  -16.2910 C   0  0  0  0  0  0  0  0  0  0  0  0
   -9.1510    4.7620  -17.6710 C   0  0  0  0  0  0  0  0  0  0  0  0
   -8.0490    4.5760  -18.4520 C   0  0  0  0  0  0  0  0  0  0  0  0
   -6.7560    4.6440  -17.8910 C   0  0  0  0  0  0  0  0  0  0  0  0
   -4.4800    4.5010  -18.1800 C   0  0  0  0  0  0  0  0  0  0  0  0
   -4.2280    4.7560  -16.8190 C   0  0  0  0  0  0  0  0  0  0  0  0
   -5.2840    4.9530  -15.9820 C   0  0  0  0  0  0  0  0  0  0  0  0
   -6.6070    4.8960  -16.4950 C   0  0  0  0  0  0  0  0  0  0  0  0
  1  4  1  0  0  0  0
  2 14  1  0  0  0  0
  2 17  1  0  0  0  0
  3  4  2  0  0  0  0
  4  5  1  0  0  0  0
  4  7  2  0  0  0  0
  5  8  4  0  0  0  0
  5 19  4  0  0  0  0
  6 16  1  0  0  0  0
  8 11  4  0  0  0  0
  9 20  1  0  0  0  0
 11 13  4  0  0  0  0
 12 26  4  0  0  0  0
  2 13  1  0  0  0  0
 13 18  4  0  0  0  0
 14 15  1  0  0  0  0
  6 15  1  0  0  0  0
 16 17  1  0  0  0  0
 18 19  4  0  0  0  0
  9 19  1  0  0  0  0
 10 20  2  0  0  0  0
 20 21  1  0  0  0  0
 21 22  4  0  0  0  0
 21 29  4  0  0  0  0
 22 23  4  0  0  0  0
 23 24  4  0  0  0  0
 24 25  4  0  0  0  0
 12 25  4  0  0  0  0
 25 29  4  0  0  0  0
 26 27  4  0  0  0  0
 27 28  4  0  0  0  0
 28 29  4  0  0  0  0
M  END
>  <pdb_header>
COMPND    XX01ZVNS2B-x1390_B_301_XX01ZVNS2B-x1291+B+301+1


$$$$
Zx1398a
  PyMOL3.0          3D                             0

 22 24  0  0  0  0  0  0  0  0999 V2000
   -2.2660    6.9240  -15.8770 C   0  0  0  0  0  0  0  0  0  0  0  0
   -4.2750    6.9750  -17.2530 N   0  0  0  0  0  0  0  0  0  0  0  0
   -7.8330    6.1000  -14.4650 O   0  0  0  0  0  0  0  0  0  0  0  0
   -3.6150    6.3950  -16.2410 C   0  0  0  0  0  0  0  0  0  0  0  0
   -8.6850    4.0850  -13.8820 N   0  0  0  0  0  0  0  0  0  0  0  0
   -5.4820    6.4850  -17.5610 C   0  0  0  0  0  0  0  0  0  0  0  0
   -8.7660    3.7370  -10.2820 N   0  0  0  0  0  0  0  0  0  0  0  0
   -6.0740    5.4360  -16.8680 C   0  0  0  0  0  0  0  0  0  0  0  0
   -8.3150    5.0180  -10.4480 N   0  0  0  0  0  0  0  0  0  0  0  0
   -7.4150    4.8760  -17.2150 C   0  0  0  0  0  0  0  0  0  0  0  0
   -4.0880    5.3750  -15.5190 N   0  0  0  0  0  0  0  0  0  0  0  0
   -7.6630    4.4990  -18.5370 C   0  0  0  0  0  0  0  0  0  0  0  0
   -8.8720    3.9520  -18.9170 C   0  0  0  0  0  0  0  0  0  0  0  0
   -9.8560    3.7470  -17.9770 C   0  0  0  0  0  0  0  0  0  0  0  0
   -9.6340    4.0890  -16.6600 C   0  0  0  0  0  0  0  0  0  0  0  0
   -8.4200    4.6500  -16.2540 C   0  0  0  0  0  0  0  0  0  0  0  0
   -8.2810    5.0130  -14.7980 C   0  0  0  0  0  0  0  0  0  0  0  0
   -8.6150    4.2410  -12.4850 C   0  0  0  0  0  0  0  0  0  0  0  0
   -8.9380    3.2800  -11.5120 C   0  0  0  0  0  0  0  0  0  0  0  0
   -8.0140    5.8500   -9.2850 C   0  0  0  0  0  0  0  0  0  0  0  0
   -8.2080    5.3540  -11.7570 C   0  0  0  0  0  0  0  0  0  0  0  0
   -5.2950    4.9060  -15.8470 C   0  0  0  0  0  0  0  0  0  0  0  0
  1  4  1  0  0  0  0
  2  4  4  0  0  0  0
  4 11  4  0  0  0  0
  2  6  4  0  0  0  0
  6  8  4  0  0  0  0
  7  9  4  0  0  0  0
  8 10  1  0  0  0  0
 10 12  4  0  0  0  0
 12 13  4  0  0  0  0
 13 14  4  0  0  0  0
 14 15  4  0  0  0  0
 10 16  4  0  0  0  0
 15 16  4  0  0  0  0
 16 17  1  0  0  0  0
  3 17  2  0  0  0  0
  5 17  1  0  0  0  0
  5 18  1  0  0  0  0
 18 19  4  0  0  0  0
 18 21  4  0  0  0  0
  7 19  4  0  0  0  0
  9 20  1  0  0  0  0
  9 21  4  0  0  0  0
  8 22  4  0  0  0  0
 11 22  4  0  0  0  0
M  END
>  <pdb_header>
HEADER    ----                                    07-NOV-23   XXXX              
TITLE     ---                                                                   
REMARK   3
REMARK   3 REFINEMENT.
REMARK   3   PROGRAM     : REFMAC 5.8.0267   
REMARK   3   AUTHORS     : MURSHUDOV,SKUBAK,LEBEDEV,PANNU,
REMARK   3                 STEINER,NICHOLLS,WINN,LONG,VAGIN
REMARK   3
REMARK   3    REFINEMENT TARGET : MAXIMUM LIKELIHOOD
REMARK   3
REMARK   3  DATA USED IN REFINEMENT.
REMARK   3   RESOLUTION RANGE HIGH (ANGSTROMS) :   1.84
REMARK   3   RESOLUTION RANGE LOW  (ANGSTROMS) :  42.36
REMARK   3   DATA CUTOFF            (SIGMA(F)) : NONE
REMARK   3   COMPLETENESS FOR RANGE        (%) :  99.92
REMARK   3   NUMBER OF REFLECTIONS             :   17161
REMARK   3
REMARK   3  FIT TO DATA USED IN REFINEMENT.
REMARK   3   CROSS-VALIDATION METHOD          : THROUGHOUT
REMARK   3   FREE R VALUE TEST SET SELECTION  : RANDOM
REMARK   3   R VALUE     (WORKING + TEST SET) : 0.22434
REMARK   3   R VALUE            (WORKING SET) :  0.22201
REMARK   3   FREE R VALUE                     :  0.26882
REMARK   3   FREE R VALUE TEST SET SIZE   (%) :  4.9
REMARK   3   FREE R VALUE TEST SET COUNT      :   892
REMARK   3
REMARK   3  FIT IN THE HIGHEST RESOLUTION BIN.
REMARK   3   TOTAL NUMBER OF BINS USED           :      20
REMARK   3   BIN RESOLUTION RANGE HIGH           :    1.840
REMARK   3   BIN RESOLUTION RANGE LOW            :    1.888
REMARK   3   REFLECTION IN BIN     (WORKING SET) :     1196
REMARK   3   BIN COMPLETENESS (WORKING+TEST) (%) :    99.69
REMARK   3   BIN R VALUE           (WORKING SET) :    0.413
REMARK   3   BIN FREE R VALUE SET COUNT          :       76
REMARK   3   BIN FREE R VALUE                    :    0.451
REMARK   3
REMARK   3  NUMBER OF NON-HYDROGEN ATOMS USED IN REFINEMENT.
REMARK   3   ALL ATOMS                :     1912
REMARK   3
REMARK   3  B VALUES.
REMARK   3   FROM WILSON PLOT           (A**2) : NULL
REMARK   3   MEAN B VALUE      (OVERALL, A**2) :  47.359
REMARK   3   OVERALL ANISOTROPIC B VALUE.
REMARK   3    B11 (A**2) :     0.40
REMARK   3    B22 (A**2) :     0.40
REMARK   3    B33 (A**2) :    -0.81
REMARK   3    B12 (A**2) :    -0.00
REMARK   3    B13 (A**2) :    -0.00
REMARK   3    B23 (A**2) :    -0.00
REMARK   3
REMARK   3  ESTIMATED OVERALL COORDINATE ERROR.
REMARK   3   ESU BASED ON R VALUE                            (A):   0.186
REMARK   3   ESU BASED ON FREE R VALUE                       (A):   0.168
REMARK   3   ESU BASED ON MAXIMUM LIKELIHOOD                 (A):   0.195
REMARK   3   ESU FOR B VALUES BASED ON MAXIMUM LIKELIHOOD (A**2):  14.739
REMARK   3
REMARK   3 CORRELATION COEFFICIENTS.
REMARK   3   CORRELATION COEFFICIENT FO-FC      :   0.959
REMARK   3   CORRELATION COEFFICIENT FO-FC FREE :   0.946
REMARK   3
REMARK   3  RMS DEVIATIONS FROM IDEAL VALUES        COUNT    RMS    WEIGHT
REMARK   3   BOND LENGTHS REFINED ATOMS        (A):  2042 ; 0.013 ; 0.013
REMARK   3   BOND LENGTHS OTHERS               (A):  1671 ; 0.002 ; 0.015
REMARK   3   BOND ANGLES REFINED ATOMS   (DEGREES):  2503 ; 1.778 ; 1.642
REMARK   3   BOND ANGLES OTHERS          (DEGREES):  3855 ; 1.318 ; 1.588
REMARK   3   TORSION ANGLES, PERIOD 1    (DEGREES):   238 ; 7.600 ; 5.000
REMARK   3   TORSION ANGLES, PERIOD 2    (DEGREES):    83 ;30.763 ;22.410
REMARK   3   TORSION ANGLES, PERIOD 3    (DEGREES):   283 ;15.458 ;15.000
REMARK   3   TORSION ANGLES, PERIOD 4    (DEGREES):    10 ;15.922 ;15.000
REMARK   3   CHIRAL-CENTER RESTRAINTS       (A**3):   219 ; 0.073 ; 0.200
REMARK   3   GENERAL PLANES REFINED ATOMS      (A):  2157 ; 0.009 ; 0.020
REMARK   3   GENERAL PLANES OTHERS             (A):   425 ; 0.002 ; 0.020
REMARK   3
REMARK   3  ISOTROPIC THERMAL FACTOR RESTRAINTS.     COUNT   RMS    WEIGHT
REMARK   3   MAIN-CHAIN BOND REFINED ATOMS  (A**2):  1001 ; 1.791 ; 2.675
REMARK   3   MAIN-CHAIN BOND OTHER ATOMS    (A**2):   958 ; 1.828 ; 2.523
REMARK   3   MAIN-CHAIN ANGLE REFINED ATOMS (A**2):  1152 ; 3.164 ; 3.742
REMARK   3   MAIN-CHAIN ANGLE OTHER ATOMS (A**2)  :  1153 ; 3.163 ; 3.747
REMARK   3   SIDE-CHAIN BOND REFINED ATOMS  (A**2):  1041 ; 2.066 ; 3.070
REMARK   3   SIDE-CHAIN BOND OTHER ATOMS  (A**2)  :  1027 ; 2.054 ; 3.002
REMARK   3   SIDE-CHAIN ANGLE OTHER ATOMS (A**2)  :  1340 ; 3.581 ; 4.206
REMARK   3   LONG RANGE B REFINED ATOMS (A**2)    :  2055 ;12.722 ;29.236
REMARK   3   LONG RANGE B OTHER ATOMS (A**2)      :  2039 ;12.725 ;28.893
REMARK   3
REMARK   3  NCS RESTRAINTS STATISTICS
REMARK   3   NUMBER OF NCS GROUPS : NULL
REMARK   3
REMARK   3  TWIN DETAILS
REMARK   3   NUMBER OF TWIN DOMAINS  : NULL
REMARK   3
REMARK   3
REMARK   3  TLS DETAILS
REMARK   3   NUMBER OF TLS GROUPS  :    2
REMARK   3   ATOM RECORD CONTAINS SUM OF TLS AND RESIDUAL B FACTORS
REMARK   3
REMARK   3   TLS GROUP :     1
REMARK   3    NUMBER OF COMPONENTS GROUP :    1
REMARK   3    COMPONENTS        C SSSEQI   TO  C SSSEQI
REMARK   3    RESIDUE RANGE :   A    50        A    88
REMARK   3    ORIGIN FOR THE GROUP (A): -13.4210  -1.8355 -19.2174
REMARK   3    T TENSOR
REMARK   3      T11:   0.2572 T22:   0.3060
REMARK   3      T33:   0.0302 T12:   0.2263
REMARK   3      T13:   0.0575 T23:   0.0540
REMARK   3    L TENSOR
REMARK   3      L11:   1.4258 L22:   1.8058
REMARK   3      L33:   0.4922 L12:  -0.5034
REMARK   3      L13:  -0.1594 L23:   0.1913
REMARK   3    S TENSOR
REMARK   3      S11:   0.3768 S12:   0.2906 S13:   0.1883
REMARK   3      S21:  -0.2642 S22:  -0.3506 S23:  -0.1596
REMARK   3      S31:  -0.0234 S32:   0.1814 S33:  -0.0263
REMARK   3
REMARK   3   TLS GROUP :     2
REMARK   3    NUMBER OF COMPONENTS GROUP :    1
REMARK   3    COMPONENTS        C SSSEQI   TO  C SSSEQI
REMARK   3    RESIDUE RANGE :   B    16        B   302
REMARK   3    ORIGIN FOR THE GROUP (A): -18.2036   0.7762 -15.8102
REMARK   3    T TENSOR
REMARK   3      T11:   0.3133 T22:   0.3340
REMARK   3      T33:   0.0872 T12:   0.1576
REMARK   3      T13:   0.0668 T23:  -0.0104
REMARK   3    L TENSOR
REMARK   3      L11:   0.7946 L22:   0.4428
REMARK   3      L33:   0.8085 L12:  -0.3971
REMARK   3      L13:   0.4963 L23:  -0.0971
REMARK   3    S TENSOR
REMARK   3      S11:   0.3317 S12:   0.1969 S13:   0.0958
REMARK   3      S21:  -0.1581 S22:  -0.3173 S23:   0.0110
REMARK   3      S31:   0.1648 S32:   0.0838 S33:  -0.0144
REMARK   3
REMARK   3
REMARK   3  BULK SOLVENT MODELLING.
REMARK   3   METHOD USED :  MASK
REMARK   3   PARAMETERS FOR MASK CALCULATION
REMARK   3   VDW PROBE RADIUS   :   1.20
REMARK   3   ION PROBE RADIUS   :   0.80
REMARK   3   SHRINKAGE RADIUS   :   0.80
REMARK   3
REMARK   3  OTHER REFINEMENT REMARKS:
REMARK   3  HYDROGENS HAVE BEEN ADDED IN THE RIDING POSITIONS
REMARK   3  U VALUES      : WITH TLS ADDED
REMARK   3
CRYST1   42.320   42.320  215.300  90.00  90.00  90.00 P 43 2 2                 


$$$$
Zx1398a_ligand
  PyMOL3.0          3D                             0

 22 24  0  0  0  0  0  0  0  0999 V2000
   -2.2660    6.9240  -15.8770 C   0  0  0  0  0  0  0  0  0  0  0  0
   -4.2750    6.9750  -17.2530 N   0  0  0  0  0  0  0  0  0  0  0  0
   -7.8330    6.1000  -14.4650 O   0  0  0  0  0  0  0  0  0  0  0  0
   -3.6150    6.3950  -16.2410 C   0  0  0  0  0  0  0  0  0  0  0  0
   -8.6850    4.0850  -13.8820 N   0  0  0  0  0  0  0  0  0  0  0  0
   -5.4820    6.4850  -17.5610 C   0  0  0  0  0  0  0  0  0  0  0  0
   -8.7660    3.7370  -10.2820 N   0  0  0  0  0  0  0  0  0  0  0  0
   -6.0740    5.4360  -16.8680 C   0  0  0  0  0  0  0  0  0  0  0  0
   -8.3150    5.0180  -10.4480 N   0  0  0  0  0  0  0  0  0  0  0  0
   -7.4150    4.8760  -17.2150 C   0  0  0  0  0  0  0  0  0  0  0  0
   -4.0880    5.3750  -15.5190 N   0  0  0  0  0  0  0  0  0  0  0  0
   -7.6630    4.4990  -18.5370 C   0  0  0  0  0  0  0  0  0  0  0  0
   -8.8720    3.9520  -18.9170 C   0  0  0  0  0  0  0  0  0  0  0  0
   -9.8560    3.7470  -17.9770 C   0  0  0  0  0  0  0  0  0  0  0  0
   -9.6340    4.0890  -16.6600 C   0  0  0  0  0  0  0  0  0  0  0  0
   -8.4200    4.6500  -16.2540 C   0  0  0  0  0  0  0  0  0  0  0  0
   -8.2810    5.0130  -14.7980 C   0  0  0  0  0  0  0  0  0  0  0  0
   -8.6150    4.2410  -12.4850 C   0  0  0  0  0  0  0  0  0  0  0  0
   -8.9380    3.2800  -11.5120 C   0  0  0  0  0  0  0  0  0  0  0  0
   -8.0140    5.8500   -9.2850 C   0  0  0  0  0  0  0  0  0  0  0  0
   -8.2080    5.3540  -11.7570 C   0  0  0  0  0  0  0  0  0  0  0  0
   -5.2950    4.9060  -15.8470 C   0  0  0  0  0  0  0  0  0  0  0  0
  1  4  1  0  0  0  0
  2  6  4  0  0  0  0
  2  4  4  0  0  0  0
  4 11  4  0  0  0  0
  5 18  1  0  0  0  0
  6  8  4  0  0  0  0
  7  9  4  0  0  0  0
  8 10  1  0  0  0  0
  8 22  4  0  0  0  0
  9 20  1  0  0  0  0
  9 21  4  0  0  0  0
 10 12  4  0  0  0  0
 10 16  4  0  0  0  0
 12 13  4  0  0  0  0
 13 14  4  0  0  0  0
 14 15  4  0  0  0  0
 15 16  4  0  0  0  0
 16 17  1  0  0  0  0
  3 17  2  0  0  0  0
  5 17  1  0  0  0  0
 18 19  4  0  0  0  0
 18 21  4  0  0  0  0
  7 19  4  0  0  0  0
 11 22  4  0  0  0  0
M  END
>  <pdb_header>
COMPND    XX01ZVNS2B-x1398_B_301_XX01ZVNS2B-x1291+B+301+1


$$$$
Zx1406a
  PyMOL3.0          3D                             0

 28 29  0  0  0  0  0  0  0  0999 V2000
   -9.0250    1.5180   -7.0980 C   0  0  0  0  0  0  0  0  0  0  0  0
   -8.5080    2.6030   -7.9270 N   0  0  0  0  0  0  0  0  0  0  0  0
   -4.5420    5.6340  -17.7870 O   0  0  0  0  0  0  0  0  0  0  0  0
   -7.1840    2.2740   -8.4590 C   0  0  0  0  0  0  0  0  0  0  0  0
   -7.9560    4.5940  -14.2100 N   0  0  0  0  0  0  0  0  0  0  0  0
   -5.1500    7.9280  -20.7150 O   0  0  0  0  0  0  0  0  0  0  0  0
   -9.4280    2.8800   -9.0130 C   0  0  0  0  0  0  0  0  0  0  0  0
   -5.5660    5.2550  -19.7490 N   0  0  0  0  0  0  0  0  0  0  0  0
   -8.2590    5.2130   -7.8580 O   0  0  0  0  0  0  0  0  0  0  0  0
   -9.0050    4.0740   -9.8220 C   0  0  0  0  0  0  0  0  0  0  0  0
   -9.1860    4.0860  -11.1970 C   0  0  0  0  0  0  0  0  0  0  0  0
   -8.8290    5.1840  -11.9630 C   0  0  0  0  0  0  0  0  0  0  0  0
   -9.0450    5.1640  -13.4550 C   0  0  0  0  0  0  0  0  0  0  0  0
   -7.9520    4.5880  -15.5980 C   0  0  0  0  0  0  0  0  0  0  0  0
   -9.1080    4.2220  -16.2830 C   0  0  0  0  0  0  0  0  0  0  0  0
   -9.1050    4.2030  -17.6680 C   0  0  0  0  0  0  0  0  0  0  0  0
   -7.9820    4.5620  -18.3810 C   0  0  0  0  0  0  0  0  0  0  0  0
   -6.8200    4.9380  -17.7070 C   0  0  0  0  0  0  0  0  0  0  0  0
   -5.5530    5.3180  -18.4220 C   0  0  0  0  0  0  0  0  0  0  0  0
   -4.4260    5.5600  -20.6450 C   0  0  0  0  0  0  0  0  0  0  0  0
   -4.8740    5.2800  -22.0770 C   0  0  0  0  0  0  0  0  0  0  0  0
   -3.2350    4.6670  -20.2800 C   0  0  0  0  0  0  0  0  0  0  0  0
   -4.0570    7.0420  -20.5050 C   0  0  0  0  0  0  0  0  0  0  0  0
   -6.8030    4.9340  -16.3060 C   0  0  0  0  0  0  0  0  0  0  0  0
   -8.2720    6.2840  -11.3300 C   0  0  0  0  0  0  0  0  0  0  0  0
   -8.0820    6.2980   -9.9580 C   0  0  0  0  0  0  0  0  0  0  0  0
   -8.4470    5.1990   -9.2100 C   0  0  0  0  0  0  0  0  0  0  0  0
  -10.5770    3.7250  -18.4950 Cl  0  0  0  0  0  0  0  0  0  0  0  0
  1  2  1  0  0  0  0
  2  4  1  0  0  0  0
  2  7  1  0  0  0  0
  7 10  1  0  0  0  0
 10 11  4  0  0  0  0
 11 12  4  0  0  0  0
 12 13  1  0  0  0  0
  5 13  1  0  0  0  0
  5 14  1  0  0  0  0
 14 15  4  0  0  0  0
 15 16  4  0  0  0  0
 16 17  4  0  0  0  0
 16 28  1  0  0  0  0
 17 18  4  0  0  0  0
 18 19  1  0  0  0  0
 18 24  4  0  0  0  0
  3 19  2  0  0  0  0
  8 19  1  0  0  0  0
  8 20  1  0  0  0  0
 20 21  1  0  0  0  0
 20 22  1  0  0  0  0
 20 23  1  0  0  0  0
  6 23  1  0  0  0  0
 14 24  4  0  0  0  0
 12 25  4  0  0  0  0
 25 26  4  0  0  0  0
 26 27  4  0  0  0  0
  9 27  1  0  0  0  0
 10 27  4  0  0  0  0
M  END
>  <pdb_header>
HEADER    ----                                    08-NOV-23   XXXX              
TITLE     ---                                                                   
REMARK   3
REMARK   3 REFINEMENT.
REMARK   3   PROGRAM     : REFMAC 5.8.0267   
REMARK   3   AUTHORS     : MURSHUDOV,SKUBAK,LEBEDEV,PANNU,
REMARK   3                 STEINER,NICHOLLS,WINN,LONG,VAGIN
REMARK   3
REMARK   3    REFINEMENT TARGET : MAXIMUM LIKELIHOOD
REMARK   3
REMARK   3  DATA USED IN REFINEMENT.
REMARK   3   RESOLUTION RANGE HIGH (ANGSTROMS) :   1.54
REMARK   3   RESOLUTION RANGE LOW  (ANGSTROMS) :  53.90
REMARK   3   DATA CUTOFF            (SIGMA(F)) : NONE
REMARK   3   COMPLETENESS FOR RANGE        (%) :  88.90
REMARK   3   NUMBER OF REFLECTIONS             :   25320
REMARK   3
REMARK   3  FIT TO DATA USED IN REFINEMENT.
REMARK   3   CROSS-VALIDATION METHOD          : THROUGHOUT
REMARK   3   FREE R VALUE TEST SET SELECTION  : RANDOM
REMARK   3   R VALUE     (WORKING + TEST SET) : 0.24915
REMARK   3   R VALUE            (WORKING SET) :  0.24671
REMARK   3   FREE R VALUE                     :  0.29563
REMARK   3   FREE R VALUE TEST SET SIZE   (%) :  5.1
REMARK   3   FREE R VALUE TEST SET COUNT      :  1366
REMARK   3
REMARK   3  FIT IN THE HIGHEST RESOLUTION BIN.
REMARK   3   TOTAL NUMBER OF BINS USED           :      20
REMARK   3   BIN RESOLUTION RANGE HIGH           :    1.542
REMARK   3   BIN RESOLUTION RANGE LOW            :    1.582
REMARK   3   REFLECTION IN BIN     (WORKING SET) :      418
REMARK   3   BIN COMPLETENESS (WORKING+TEST) (%) :    20.37
REMARK   3   BIN R VALUE           (WORKING SET) :    0.579
REMARK   3   BIN FREE R VALUE SET COUNT          :       24
REMARK   3   BIN FREE R VALUE                    :    0.596
REMARK   3
REMARK   3  NUMBER OF NON-HYDROGEN ATOMS USED IN REFINEMENT.
REMARK   3   ALL ATOMS                :     2401
REMARK   3
REMARK   3  B VALUES.
REMARK   3   FROM WILSON PLOT           (A**2) : NULL
REMARK   3   MEAN B VALUE      (OVERALL, A**2) :  47.400
REMARK   3   OVERALL ANISOTROPIC B VALUE.
REMARK   3    B11 (A**2) :    -1.14
REMARK   3    B22 (A**2) :    -1.14
REMARK   3    B33 (A**2) :     2.28
REMARK   3    B12 (A**2) :    -0.00
REMARK   3    B13 (A**2) :    -0.00
REMARK   3    B23 (A**2) :     0.00
REMARK   3
REMARK   3  ESTIMATED OVERALL COORDINATE ERROR.
REMARK   3   ESU BASED ON R VALUE                            (A):   0.157
REMARK   3   ESU BASED ON FREE R VALUE                       (A):   0.149
REMARK   3   ESU BASED ON MAXIMUM LIKELIHOOD                 (A):   0.241
REMARK   3   ESU FOR B VALUES BASED ON MAXIMUM LIKELIHOOD (A**2):  18.164
REMARK   3
REMARK   3 CORRELATION COEFFICIENTS.
REMARK   3   CORRELATION COEFFICIENT FO-FC      :   0.956
REMARK   3   CORRELATION COEFFICIENT FO-FC FREE :   0.939
REMARK   3
REMARK   3  RMS DEVIATIONS FROM IDEAL VALUES        COUNT    RMS    WEIGHT
REMARK   3   BOND LENGTHS REFINED ATOMS        (A):  2968 ; 0.013 ; 0.014
REMARK   3   BOND LENGTHS OTHERS               (A):  2236 ; 0.004 ; 0.015
REMARK   3   BOND ANGLES REFINED ATOMS   (DEGREES):  3230 ; 1.649 ; 1.631
REMARK   3   BOND ANGLES OTHERS          (DEGREES):  5138 ; 1.311 ; 1.586
REMARK   3   TORSION ANGLES, PERIOD 1    (DEGREES):   310 ; 7.513 ; 5.000
REMARK   3   TORSION ANGLES, PERIOD 2    (DEGREES):   109 ;33.850 ;23.853
REMARK   3   TORSION ANGLES, PERIOD 3    (DEGREES):   364 ;15.961 ;15.000
REMARK   3   TORSION ANGLES, PERIOD 4    (DEGREES):    10 ;13.877 ;15.000
REMARK   3   CHIRAL-CENTER RESTRAINTS       (A**3):   286 ; 0.084 ; 0.200
REMARK   3   GENERAL PLANES REFINED ATOMS      (A):  2765 ; 0.011 ; 0.020
REMARK   3   GENERAL PLANES OTHERS             (A):   507 ; 0.002 ; 0.020
REMARK   3
REMARK   3  ISOTROPIC THERMAL FACTOR RESTRAINTS.     COUNT   RMS    WEIGHT
REMARK   3   MAIN-CHAIN BOND REFINED ATOMS  (A**2):  1487 ; 1.277 ; 1.418
REMARK   3   MAIN-CHAIN BOND OTHER ATOMS    (A**2):  1433 ; 1.299 ; 1.248
REMARK   3   MAIN-CHAIN ANGLE REFINED ATOMS (A**2):  1500 ; 2.239 ; 1.814
REMARK   3   MAIN-CHAIN ANGLE OTHER ATOMS (A**2)  :  1501 ; 2.239 ; 1.819
REMARK   3   SIDE-CHAIN BOND REFINED ATOMS  (A**2):  1480 ; 1.423 ; 1.692
REMARK   3   SIDE-CHAIN BOND OTHER ATOMS  (A**2)  :  1481 ; 1.423 ; 1.698
REMARK   3   SIDE-CHAIN ANGLE OTHER ATOMS (A**2)  :  1731 ; 2.504 ; 2.256
REMARK   3   LONG RANGE B REFINED ATOMS (A**2)    :  2446 ; 9.310 ;13.770
REMARK   3   LONG RANGE B OTHER ATOMS (A**2)      :  2447 ; 9.308 ;13.826
REMARK   3
REMARK   3  NCS RESTRAINTS STATISTICS
REMARK   3   NUMBER OF NCS GROUPS : NULL
REMARK   3
REMARK   3  TWIN DETAILS
REMARK   3   NUMBER OF TWIN DOMAINS  : NULL
REMARK   3
REMARK   3
REMARK   3  TLS DETAILS
REMARK   3   NUMBER OF TLS GROUPS  :    2
REMARK   3   ATOM RECORD CONTAINS SUM OF TLS AND RESIDUAL B FACTORS
REMARK   3
REMARK   3   TLS GROUP :     1
REMARK   3    NUMBER OF COMPONENTS GROUP :    1
REMARK   3    COMPONENTS        C SSSEQI   TO  C SSSEQI
REMARK   3    RESIDUE RANGE :   A    50        A   101
REMARK   3    ORIGIN FOR THE GROUP (A):   8.3349  18.2247 -19.4974
REMARK   3    T TENSOR
REMARK   3      T11:   0.4963 T22:   0.4966
REMARK   3      T33:   0.0442 T12:   0.1301
REMARK   3      T13:   0.0683 T23:   0.0534
REMARK   3    L TENSOR
REMARK   3      L11:   1.7220 L22:   2.0316
REMARK   3      L33:   1.9579 L12:  -0.2484
REMARK   3      L13:  -0.2558 L23:  -0.0571
REMARK   3    S TENSOR
REMARK   3      S11:   0.2723 S12:   0.2174 S13:   0.2695
REMARK   3      S21:  -0.2003 S22:  -0.2502 S23:  -0.0697
REMARK   3      S31:   0.1780 S32:   0.2590 S33:  -0.0221
REMARK   3
REMARK   3   TLS GROUP :     2
REMARK   3    NUMBER OF COMPONENTS GROUP :    1
REMARK   3    COMPONENTS        C SSSEQI   TO  C SSSEQI
REMARK   3    RESIDUE RANGE :   B    16        B   307
REMARK   3    ORIGIN FOR THE GROUP (A):   3.6775  20.7287 -15.8664
REMARK   3    T TENSOR
REMARK   3      T11:   0.5207 T22:   0.5335
REMARK   3      T33:   0.1193 T12:   0.1270
REMARK   3      T13:   0.0539 T23:   0.0327
REMARK   3    L TENSOR
REMARK   3      L11:   0.8526 L22:   0.1163
REMARK   3      L33:   0.4944 L12:  -0.0187
REMARK   3      L13:   0.3367 L23:  -0.0395
REMARK   3    S TENSOR
REMARK   3      S11:   0.2305 S12:   0.1238 S13:   0.1386
REMARK   3      S21:  -0.0879 S22:  -0.1923 S23:   0.0502
REMARK   3      S31:   0.0795 S32:   0.0972 S33:  -0.0382
REMARK   3
REMARK   3
REMARK   3  BULK SOLVENT MODELLING.
REMARK   3   METHOD USED :  MASK
REMARK   3   PARAMETERS FOR MASK CALCULATION
REMARK   3   VDW PROBE RADIUS   :   1.20
REMARK   3   ION PROBE RADIUS   :   0.80
REMARK   3   SHRINKAGE RADIUS   :   0.80
REMARK   3
REMARK   3  OTHER REFINEMENT REMARKS:
REMARK   3  HYDROGENS HAVE BEEN ADDED IN THE RIDING POSITIONS
REMARK   3  U VALUES      : WITH TLS ADDED
REMARK   3
CRYST1   42.119   42.119  215.607  90.00  90.00  90.00 P 43 2 2                 


$$$$
Zx1406a_ligand
  PyMOL3.0          3D                             0

 28 29  0  0  0  0  0  0  0  0999 V2000
  -10.5770    3.7250  -18.4950 Cl  0  0  0  0  0  0  0  0  0  0  0  0
   -9.0250    1.5180   -7.0980 C   0  0  0  0  0  0  0  0  0  0  0  0
   -8.5080    2.6030   -7.9270 N   0  0  0  0  0  0  0  0  0  0  0  0
   -4.5420    5.6340  -17.7870 O   0  0  0  0  0  0  0  0  0  0  0  0
   -7.1840    2.2740   -8.4590 C   0  0  0  0  0  0  0  0  0  0  0  0
   -7.9560    4.5940  -14.2100 N   0  0  0  0  0  0  0  0  0  0  0  0
   -5.1500    7.9280  -20.7150 O   0  0  0  0  0  0  0  0  0  0  0  0
   -9.4280    2.8800   -9.0130 C   0  0  0  0  0  0  0  0  0  0  0  0
   -5.5660    5.2550  -19.7490 N   0  0  0  0  0  0  0  0  0  0  0  0
   -8.2590    5.2130   -7.8580 O   0  0  0  0  0  0  0  0  0  0  0  0
   -9.0050    4.0740   -9.8220 C   0  0  0  0  0  0  0  0  0  0  0  0
   -9.1860    4.0860  -11.1970 C   0  0  0  0  0  0  0  0  0  0  0  0
   -8.8290    5.1840  -11.9630 C   0  0  0  0  0  0  0  0  0  0  0  0
   -9.0450    5.1640  -13.4550 C   0  0  0  0  0  0  0  0  0  0  0  0
   -7.9520    4.5880  -15.5980 C   0  0  0  0  0  0  0  0  0  0  0  0
   -9.1080    4.2220  -16.2830 C   0  0  0  0  0  0  0  0  0  0  0  0
   -9.1050    4.2030  -17.6680 C   0  0  0  0  0  0  0  0  0  0  0  0
   -7.9820    4.5620  -18.3810 C   0  0  0  0  0  0  0  0  0  0  0  0
   -6.8200    4.9380  -17.7070 C   0  0  0  0  0  0  0  0  0  0  0  0
   -5.5530    5.3180  -18.4220 C   0  0  0  0  0  0  0  0  0  0  0  0
   -4.4260    5.5600  -20.6450 C   0  0  0  0  0  0  0  0  0  0  0  0
   -4.8740    5.2800  -22.0770 C   0  0  0  0  0  0  0  0  0  0  0  0
   -3.2350    4.6670  -20.2800 C   0  0  0  0  0  0  0  0  0  0  0  0
   -4.0570    7.0420  -20.5050 C   0  0  0  0  0  0  0  0  0  0  0  0
   -6.8030    4.9340  -16.3060 C   0  0  0  0  0  0  0  0  0  0  0  0
   -8.2720    6.2840  -11.3300 C   0  0  0  0  0  0  0  0  0  0  0  0
   -8.0820    6.2980   -9.9580 C   0  0  0  0  0  0  0  0  0  0  0  0
   -8.4470    5.1990   -9.2100 C   0  0  0  0  0  0  0  0  0  0  0  0
  2  3  1  0  0  0  0
  3  5  1  0  0  0  0
  3  8  1  0  0  0  0
  6 15  1  0  0  0  0
  8 11  1  0  0  0  0
  9 21  1  0  0  0  0
 11 12  4  0  0  0  0
 11 28  4  0  0  0  0
 12 13  4  0  0  0  0
 13 14  1  0  0  0  0
 13 26  4  0  0  0  0
  6 14  1  0  0  0  0
 15 16  4  0  0  0  0
 15 25  4  0  0  0  0
 16 17  4  0  0  0  0
  1 17  1  0  0  0  0
 17 18  4  0  0  0  0
 18 19  4  0  0  0  0
 19 20  1  0  0  0  0
 19 25  4  0  0  0  0
  4 20  2  0  0  0  0
  9 20  1  0  0  0  0
 21 22  1  0  0  0  0
 21 23  1  0  0  0  0
 21 24  1  0  0  0  0
  7 24  1  0  0  0  0
 26 27  4  0  0  0  0
 27 28  4  0  0  0  0
 10 28  1  0  0  0  0
M  END
>  <pdb_header>
COMPND    XX01ZVNS2B-x1406_B_301_XX01ZVNS2B-x1291+B+301+1


$$$$
Zx1413a
  PyMOL3.0          3D                             0

 22 25  0  0  0  0  0  0  0  0999 V2000
   -8.1160    5.5740  -13.3370 C   0  0  0  0  0  0  0  0  0  0  0  0
   -8.2400    4.5150  -12.5010 N   0  0  0  0  0  0  0  0  0  0  0  0
   -8.5600    6.6890  -13.0640 O   0  0  0  0  0  0  0  0  0  0  0  0
   -8.5200    4.6300  -11.1330 C   0  0  0  0  0  0  0  0  0  0  0  0
   -8.9180    5.5460   -9.1480 N   0  0  0  0  0  0  0  0  0  0  0  0
   -8.6340    5.8190  -10.4150 C   0  0  0  0  0  0  0  0  0  0  0  0
   -8.9780    4.1730   -9.0320 N   0  0  0  0  0  0  0  0  0  0  0  0
   -8.7390    3.6080  -10.2340 C   0  0  0  0  0  0  0  0  0  0  0  0
   -8.6430    1.4950   -9.0700 N   0  0  0  0  0  0  0  0  0  0  0  0
   -8.7490    2.1200  -10.3870 C   0  0  0  0  0  0  0  0  0  0  0  0
   -7.8310    4.1990  -18.1600 N   0  0  0  0  0  0  0  0  0  0  0  0
   -9.6000    2.0430   -8.0880 C   0  0  0  0  0  0  0  0  0  0  0  0
   -9.2760    3.4870   -7.7810 C   0  0  0  0  0  0  0  0  0  0  0  0
   -7.3980    5.3680  -14.6350 C   0  0  0  0  0  0  0  0  0  0  0  0
   -6.0820    5.7440  -14.7090 C   0  0  0  0  0  0  0  0  0  0  0  0
   -5.3500    5.5990  -15.9000 C   0  0  0  0  0  0  0  0  0  0  0  0
   -5.9410    5.1030  -17.0240 C   0  0  0  0  0  0  0  0  0  0  0  0
   -7.2990    4.7110  -17.0030 C   0  0  0  0  0  0  0  0  0  0  0  0
   -9.0990    3.8410  -18.1290 C   0  0  0  0  0  0  0  0  0  0  0  0
   -9.9190    3.9270  -16.9870 C   0  0  0  0  0  0  0  0  0  0  0  0
   -9.3980    4.4230  -15.8230 C   0  0  0  0  0  0  0  0  0  0  0  0
   -8.0450    4.8330  -15.7920 C   0  0  0  0  0  0  0  0  0  0  0  0
  1  2  1  0  0  0  0
  1  3  2  0  0  0  0
  1 14  1  0  0  0  0
  2  4  1  0  0  0  0
  4  6  4  0  0  0  0
  4  8  4  0  0  0  0
  5  7  4  0  0  0  0
  5  6  4  0  0  0  0
  7  8  4  0  0  0  0
  8 10  1  0  0  0  0
  9 10  1  0  0  0  0
  9 12  1  0  0  0  0
 12 13  1  0  0  0  0
  7 13  1  0  0  0  0
 14 15  4  0  0  0  0
 15 16  4  0  0  0  0
 16 17  4  0  0  0  0
 17 18  4  0  0  0  0
 11 18  4  0  0  0  0
 18 22  4  0  0  0  0
 11 19  4  0  0  0  0
 19 20  4  0  0  0  0
 20 21  4  0  0  0  0
 21 22  4  0  0  0  0
 14 22  4  0  0  0  0
M  END
>  <pdb_header>
HEADER    ----                                    11-DEC-23   XXXX              
TITLE     ---                                                                   
REMARK   3
REMARK   3 REFINEMENT.
REMARK   3   PROGRAM     : REFMAC 5.8.0267   
REMARK   3   AUTHORS     : MURSHUDOV,SKUBAK,LEBEDEV,PANNU,
REMARK   3                 STEINER,NICHOLLS,WINN,LONG,VAGIN
REMARK   3
REMARK   3    REFINEMENT TARGET : MAXIMUM LIKELIHOOD
REMARK   3
REMARK   3  DATA USED IN REFINEMENT.
REMARK   3   RESOLUTION RANGE HIGH (ANGSTROMS) :   1.84
REMARK   3   RESOLUTION RANGE LOW  (ANGSTROMS) :  42.44
REMARK   3   DATA CUTOFF            (SIGMA(F)) : NONE
REMARK   3   COMPLETENESS FOR RANGE        (%) :  94.76
REMARK   3   NUMBER OF REFLECTIONS             :   16431
REMARK   3
REMARK   3  FIT TO DATA USED IN REFINEMENT.
REMARK   3   CROSS-VALIDATION METHOD          : THROUGHOUT
REMARK   3   FREE R VALUE TEST SET SELECTION  : RANDOM
REMARK   3   R VALUE     (WORKING + TEST SET) : 0.24227
REMARK   3   R VALUE            (WORKING SET) :  0.24026
REMARK   3   FREE R VALUE                     :  0.27988
REMARK   3   FREE R VALUE TEST SET SIZE   (%) :  4.9
REMARK   3   FREE R VALUE TEST SET COUNT      :   847
REMARK   3
REMARK   3  FIT IN THE HIGHEST RESOLUTION BIN.
REMARK   3   TOTAL NUMBER OF BINS USED           :      20
REMARK   3   BIN RESOLUTION RANGE HIGH           :    1.840
REMARK   3   BIN RESOLUTION RANGE LOW            :    1.888
REMARK   3   REFLECTION IN BIN     (WORKING SET) :      725
REMARK   3   BIN COMPLETENESS (WORKING+TEST) (%) :    59.08
REMARK   3   BIN R VALUE           (WORKING SET) :    0.639
REMARK   3   BIN FREE R VALUE SET COUNT          :       46
REMARK   3   BIN FREE R VALUE                    :    0.694
REMARK   3
REMARK   3  NUMBER OF NON-HYDROGEN ATOMS USED IN REFINEMENT.
REMARK   3   ALL ATOMS                :     2338
REMARK   3
REMARK   3  B VALUES.
REMARK   3   FROM WILSON PLOT           (A**2) : NULL
REMARK   3   MEAN B VALUE      (OVERALL, A**2) :  64.931
REMARK   3   OVERALL ANISOTROPIC B VALUE.
REMARK   3    B11 (A**2) :    -0.23
REMARK   3    B22 (A**2) :    -0.23
REMARK   3    B33 (A**2) :     0.46
REMARK   3    B12 (A**2) :     0.00
REMARK   3    B13 (A**2) :     0.00
REMARK   3    B23 (A**2) :     0.00
REMARK   3
REMARK   3  ESTIMATED OVERALL COORDINATE ERROR.
REMARK   3   ESU BASED ON R VALUE                            (A):   0.263
REMARK   3   ESU BASED ON FREE R VALUE                       (A):   0.201
REMARK   3   ESU BASED ON MAXIMUM LIKELIHOOD                 (A):   0.309
REMARK   3   ESU FOR B VALUES BASED ON MAXIMUM LIKELIHOOD (A**2):  25.004
REMARK   3
REMARK   3 CORRELATION COEFFICIENTS.
REMARK   3   CORRELATION COEFFICIENT FO-FC      :   0.958
REMARK   3   CORRELATION COEFFICIENT FO-FC FREE :   0.939
REMARK   3
REMARK   3  RMS DEVIATIONS FROM IDEAL VALUES        COUNT    RMS    WEIGHT
REMARK   3   BOND LENGTHS REFINED ATOMS        (A):  2761 ; 0.012 ; 0.014
REMARK   3   BOND LENGTHS OTHERS               (A):  1998 ; 0.004 ; 0.015
REMARK   3   BOND ANGLES REFINED ATOMS   (DEGREES):  3105 ; 1.624 ; 1.642
REMARK   3   BOND ANGLES OTHERS          (DEGREES):  4633 ; 1.286 ; 1.601
REMARK   3   TORSION ANGLES, PERIOD 1    (DEGREES):   304 ; 7.371 ; 5.000
REMARK   3   TORSION ANGLES, PERIOD 2    (DEGREES):   107 ;30.689 ;23.271
REMARK   3   TORSION ANGLES, PERIOD 3    (DEGREES):   330 ;16.277 ;15.000
REMARK   3   TORSION ANGLES, PERIOD 4    (DEGREES):    10 ;19.412 ;15.000
REMARK   3   CHIRAL-CENTER RESTRAINTS       (A**3):   269 ; 0.070 ; 0.200
REMARK   3   GENERAL PLANES REFINED ATOMS      (A):  2758 ; 0.008 ; 0.020
REMARK   3   GENERAL PLANES OTHERS             (A):   534 ; 0.002 ; 0.020
REMARK   3
REMARK   3  ISOTROPIC THERMAL FACTOR RESTRAINTS.     COUNT   RMS    WEIGHT
REMARK   3   MAIN-CHAIN BOND REFINED ATOMS  (A**2):  1410 ; 1.264 ; 1.847
REMARK   3   MAIN-CHAIN BOND OTHER ATOMS    (A**2):  1336 ; 1.297 ; 1.572
REMARK   3   MAIN-CHAIN ANGLE REFINED ATOMS (A**2):  1462 ; 2.397 ; 2.236
REMARK   3   MAIN-CHAIN ANGLE OTHER ATOMS (A**2)  :  1463 ; 2.397 ; 2.243
REMARK   3   SIDE-CHAIN BOND REFINED ATOMS  (A**2):  1351 ; 1.342 ; 1.885
REMARK   3   SIDE-CHAIN BOND OTHER ATOMS  (A**2)  :  1338 ; 1.341 ; 1.814
REMARK   3   SIDE-CHAIN ANGLE OTHER ATOMS (A**2)  :  1632 ; 2.444 ; 2.491
REMARK   3   LONG RANGE B REFINED ATOMS (A**2)    :  2605 ;12.731 ;16.885
REMARK   3   LONG RANGE B OTHER ATOMS (A**2)      :  2589 ;12.741 ;16.458
REMARK   3
REMARK   3  NCS RESTRAINTS STATISTICS
REMARK   3   NUMBER OF NCS GROUPS : NULL
REMARK   3
REMARK   3  TWIN DETAILS
REMARK   3   NUMBER OF TWIN DOMAINS  : NULL
REMARK   3
REMARK   3
REMARK   3  TLS DETAILS
REMARK   3   NUMBER OF TLS GROUPS  :    2
REMARK   3   ATOM RECORD CONTAINS SUM OF TLS AND RESIDUAL B FACTORS
REMARK   3
REMARK   3   TLS GROUP :     1
REMARK   3    NUMBER OF COMPONENTS GROUP :    1
REMARK   3    COMPONENTS        C SSSEQI   TO  C SSSEQI
REMARK   3    RESIDUE RANGE :   A    50        A    88
REMARK   3    ORIGIN FOR THE GROUP (A): -13.8204  -1.7821 -19.5422
REMARK   3    T TENSOR
REMARK   3      T11:   0.5449 T22:   0.5486
REMARK   3      T33:   0.1018 T12:   0.1722
REMARK   3      T13:   0.1482 T23:   0.1092
REMARK   3    L TENSOR
REMARK   3      L11:   2.7176 L22:   4.4983
REMARK   3      L33:   2.0762 L12:  -1.3045
REMARK   3      L13:   0.4829 L23:   1.3368
REMARK   3    S TENSOR
REMARK   3      S11:   0.4540 S12:   0.1657 S13:   0.3481
REMARK   3      S21:  -0.5647 S22:  -0.3262 S23:  -0.3788
REMARK   3      S31:  -0.0055 S32:   0.1797 S33:  -0.1278
REMARK   3
REMARK   3   TLS GROUP :     2
REMARK   3    NUMBER OF COMPONENTS GROUP :    1
REMARK   3    COMPONENTS        C SSSEQI   TO  C SSSEQI
REMARK   3    RESIDUE RANGE :   B    15        B   302
REMARK   3    ORIGIN FOR THE GROUP (A): -19.2016   0.8754 -15.7180
REMARK   3    T TENSOR
REMARK   3      T11:   0.8154 T22:   0.8110
REMARK   3      T33:   0.2205 T12:   0.1923
REMARK   3      T13:   0.0747 T23:  -0.0428
REMARK   3    L TENSOR
REMARK   3      L11:   0.5154 L22:   0.3207
REMARK   3      L33:   1.4571 L12:  -0.3146
REMARK   3      L13:   0.5701 L23:  -0.2835
REMARK   3    S TENSOR
REMARK   3      S11:   0.2990 S12:   0.1752 S13:   0.0450
REMARK   3      S21:  -0.1641 S22:  -0.3302 S23:   0.1078
REMARK   3      S31:   0.2679 S32:   0.1921 S33:   0.0312
REMARK   3
REMARK   3
REMARK   3  BULK SOLVENT MODELLING.
REMARK   3   METHOD USED :  MASK
REMARK   3   PARAMETERS FOR MASK CALCULATION
REMARK   3   VDW PROBE RADIUS   :   1.20
REMARK   3   ION PROBE RADIUS   :   0.80
REMARK   3   SHRINKAGE RADIUS   :   0.80
REMARK   3
REMARK   3  OTHER REFINEMENT REMARKS:
REMARK   3  HYDROGENS HAVE BEEN ADDED IN THE RIDING POSITIONS
REMARK   3  U VALUES      : WITH TLS ADDED
REMARK   3
CRYST1   42.400   42.400  216.420  90.00  90.00  90.00 P 43 2 2                 


$$$$
Zx1413a_ligand
  PyMOL3.0          3D                             0

 22 25  0  0  0  0  0  0  0  0999 V2000
   -8.1160    5.5740  -13.3370 C   0  0  0  0  0  0  0  0  0  0  0  0
   -8.2400    4.5150  -12.5010 N   0  0  0  0  0  0  0  0  0  0  0  0
   -8.5600    6.6890  -13.0640 O   0  0  0  0  0  0  0  0  0  0  0  0
   -8.5200    4.6300  -11.1330 C   0  0  0  0  0  0  0  0  0  0  0  0
   -8.9180    5.5460   -9.1480 N   0  0  0  0  0  0  0  0  0  0  0  0
   -8.6340    5.8190  -10.4150 C   0  0  0  0  0  0  0  0  0  0  0  0
   -8.9780    4.1730   -9.0320 N   0  0  0  0  0  0  0  0  0  0  0  0
   -8.7390    3.6080  -10.2340 C   0  0  0  0  0  0  0  0  0  0  0  0
   -8.6430    1.4950   -9.0700 N   0  0  0  0  0  0  0  0  0  0  0  0
   -8.7490    2.1200  -10.3870 C   0  0  0  0  0  0  0  0  0  0  0  0
   -7.8310    4.1990  -18.1600 N   0  0  0  0  0  0  0  0  0  0  0  0
   -9.6000    2.0430   -8.0880 C   0  0  0  0  0  0  0  0  0  0  0  0
   -9.2760    3.4870   -7.7810 C   0  0  0  0  0  0  0  0  0  0  0  0
   -7.3980    5.3680  -14.6350 C   0  0  0  0  0  0  0  0  0  0  0  0
   -6.0820    5.7440  -14.7090 C   0  0  0  0  0  0  0  0  0  0  0  0
   -5.3500    5.5990  -15.9000 C   0  0  0  0  0  0  0  0  0  0  0  0
   -5.9410    5.1030  -17.0240 C   0  0  0  0  0  0  0  0  0  0  0  0
   -7.2990    4.7110  -17.0030 C   0  0  0  0  0  0  0  0  0  0  0  0
   -9.0990    3.8410  -18.1290 C   0  0  0  0  0  0  0  0  0  0  0  0
   -9.9190    3.9270  -16.9870 C   0  0  0  0  0  0  0  0  0  0  0  0
   -9.3980    4.4230  -15.8230 C   0  0  0  0  0  0  0  0  0  0  0  0
   -8.0450    4.8330  -15.7920 C   0  0  0  0  0  0  0  0  0  0  0  0
  1  2  1  0  0  0  0
  1 14  1  0  0  0  0
  2  4  1  0  0  0  0
  1  3  2  0  0  0  0
  4  6  4  0  0  0  0
  4  8  4  0  0  0  0
  5  7  4  0  0  0  0
  5  6  4  0  0  0  0
  7  8  4  0  0  0  0
  7 13  1  0  0  0  0
  8 10  1  0  0  0  0
  9 12  1  0  0  0  0
  9 10  1  0  0  0  0
 11 19  4  0  0  0  0
 12 13  1  0  0  0  0
 14 15  4  0  0  0  0
 14 22  4  0  0  0  0
 15 16  4  0  0  0  0
 16 17  4  0  0  0  0
 17 18  4  0  0  0  0
 11 18  4  0  0  0  0
 18 22  4  0  0  0  0
 19 20  4  0  0  0  0
 20 21  4  0  0  0  0
 21 22  4  0  0  0  0
M  END
>  <pdb_header>
COMPND    XX01ZVNS2B-x1413_B_301_XX01ZVNS2B-x1291+B+301+1


$$$$
Zx1451a
  PyMOL3.0          3D                             0

 23 25  0  0  0  0  0  0  0  0999 V2000
   -1.7890    8.3430  -16.6790 C   0  0  0  0  0  0  0  0  0  0  0  0
   -2.2280    7.0850  -16.0990 N   0  0  0  0  0  0  0  0  0  0  0  0
   -7.7350    6.2790  -14.4150 O   0  0  0  0  0  0  0  0  0  0  0  0
   -3.4530    6.5410  -16.3150 C   0  0  0  0  0  0  0  0  0  0  0  0
   -8.6710    4.2920  -13.7940 N   0  0  0  0  0  0  0  0  0  0  0  0
   -3.9650    5.5670  -15.4530 C   0  0  0  0  0  0  0  0  0  0  0  0
   -8.7290    3.8720  -10.2160 N   0  0  0  0  0  0  0  0  0  0  0  0
   -5.2130    5.0480  -15.7180 C   0  0  0  0  0  0  0  0  0  0  0  0
   -8.3160    5.1690  -10.3620 N   0  0  0  0  0  0  0  0  0  0  0  0
   -5.9600    5.4900  -16.8050 C   0  0  0  0  0  0  0  0  0  0  0  0
   -4.1360    6.9790  -17.3900 N   0  0  0  0  0  0  0  0  0  0  0  0
   -7.3130    4.9240  -17.1060 C   0  0  0  0  0  0  0  0  0  0  0  0
   -7.5890    4.4970  -18.4060 C   0  0  0  0  0  0  0  0  0  0  0  0
   -8.8150    3.9640  -18.7520 C   0  0  0  0  0  0  0  0  0  0  0  0
   -9.8050    3.8340  -17.8040 C   0  0  0  0  0  0  0  0  0  0  0  0
   -9.5670    4.2410  -16.5110 C   0  0  0  0  0  0  0  0  0  0  0  0
   -8.3310    4.7820  -16.1440 C   0  0  0  0  0  0  0  0  0  0  0  0
   -8.2090    5.1950  -14.7110 C   0  0  0  0  0  0  0  0  0  0  0  0
   -8.5960    4.4190  -12.4000 C   0  0  0  0  0  0  0  0  0  0  0  0
   -8.8970    3.4290  -11.4450 C   0  0  0  0  0  0  0  0  0  0  0  0
   -8.0320    5.9590   -9.1660 C   0  0  0  0  0  0  0  0  0  0  0  0
   -8.2190    5.5300  -11.6610 C   0  0  0  0  0  0  0  0  0  0  0  0
   -5.3500    6.4500  -17.6090 C   0  0  0  0  0  0  0  0  0  0  0  0
  1  2  1  0  0  0  0
  2  4  1  0  0  0  0
  4  6  4  0  0  0  0
  4 11  4  0  0  0  0
  6  8  4  0  0  0  0
  7  9  4  0  0  0  0
  8 10  4  0  0  0  0
 10 12  1  0  0  0  0
 12 13  4  0  0  0  0
 13 14  4  0  0  0  0
 14 15  4  0  0  0  0
 15 16  4  0  0  0  0
 16 17  4  0  0  0  0
 12 17  4  0  0  0  0
 17 18  1  0  0  0  0
  3 18  2  0  0  0  0
  5 18  1  0  0  0  0
  5 19  1  0  0  0  0
 19 20  4  0  0  0  0
 19 22  4  0  0  0  0
  7 20  4  0  0  0  0
  9 21  1  0  0  0  0
  9 22  4  0  0  0  0
 10 23  4  0  0  0  0
 11 23  4  0  0  0  0
M  END
>  <pdb_header>
HEADER    ----                                    09-NOV-23   XXXX              
TITLE     ---                                                                   
REMARK   3
REMARK   3 REFINEMENT.
REMARK   3   PROGRAM     : REFMAC 5.8.0267   
REMARK   3   AUTHORS     : MURSHUDOV,SKUBAK,LEBEDEV,PANNU,
REMARK   3                 STEINER,NICHOLLS,WINN,LONG,VAGIN
REMARK   3
REMARK   3    REFINEMENT TARGET : MAXIMUM LIKELIHOOD
REMARK   3
REMARK   3  DATA USED IN REFINEMENT.
REMARK   3   RESOLUTION RANGE HIGH (ANGSTROMS) :   1.48
REMARK   3   RESOLUTION RANGE LOW  (ANGSTROMS) :  54.02
REMARK   3   DATA CUTOFF            (SIGMA(F)) : NONE
REMARK   3   COMPLETENESS FOR RANGE        (%) :  94.07
REMARK   3   NUMBER OF REFLECTIONS             :   30848
REMARK   3
REMARK   3  FIT TO DATA USED IN REFINEMENT.
REMARK   3   CROSS-VALIDATION METHOD          : THROUGHOUT
REMARK   3   FREE R VALUE TEST SET SELECTION  : RANDOM
REMARK   3   R VALUE     (WORKING + TEST SET) : 0.27303
REMARK   3   R VALUE            (WORKING SET) :  0.27177
REMARK   3   FREE R VALUE                     :  0.29674
REMARK   3   FREE R VALUE TEST SET SIZE   (%) :  5.1
REMARK   3   FREE R VALUE TEST SET COUNT      :  1645
REMARK   3
REMARK   3  FIT IN THE HIGHEST RESOLUTION BIN.
REMARK   3   TOTAL NUMBER OF BINS USED           :      20
REMARK   3   BIN RESOLUTION RANGE HIGH           :    1.480
REMARK   3   BIN RESOLUTION RANGE LOW            :    1.519
REMARK   3   REFLECTION IN BIN     (WORKING SET) :      634
REMARK   3   BIN COMPLETENESS (WORKING+TEST) (%) :    26.76
REMARK   3   BIN R VALUE           (WORKING SET) :    0.670
REMARK   3   BIN FREE R VALUE SET COUNT          :       34
REMARK   3   BIN FREE R VALUE                    :    0.621
REMARK   3
REMARK   3  NUMBER OF NON-HYDROGEN ATOMS USED IN REFINEMENT.
REMARK   3   ALL ATOMS                :     2445
REMARK   3
REMARK   3  B VALUES.
REMARK   3   FROM WILSON PLOT           (A**2) : NULL
REMARK   3   MEAN B VALUE      (OVERALL, A**2) :  50.500
REMARK   3   OVERALL ANISOTROPIC B VALUE.
REMARK   3    B11 (A**2) :    -0.66
REMARK   3    B22 (A**2) :    -0.66
REMARK   3    B33 (A**2) :     1.32
REMARK   3    B12 (A**2) :     0.00
REMARK   3    B13 (A**2) :     0.00
REMARK   3    B23 (A**2) :     0.00
REMARK   3
REMARK   3  ESTIMATED OVERALL COORDINATE ERROR.
REMARK   3   ESU BASED ON R VALUE                            (A):   0.142
REMARK   3   ESU BASED ON FREE R VALUE                       (A):   0.128
REMARK   3   ESU BASED ON MAXIMUM LIKELIHOOD                 (A):   0.262
REMARK   3   ESU FOR B VALUES BASED ON MAXIMUM LIKELIHOOD (A**2):  17.897
REMARK   3
REMARK   3 CORRELATION COEFFICIENTS.
REMARK   3   CORRELATION COEFFICIENT FO-FC      :   0.951
REMARK   3   CORRELATION COEFFICIENT FO-FC FREE :   0.942
REMARK   3
REMARK   3  RMS DEVIATIONS FROM IDEAL VALUES        COUNT    RMS    WEIGHT
REMARK   3   BOND LENGTHS REFINED ATOMS        (A):  3000 ; 0.021 ; 0.014
REMARK   3   BOND LENGTHS OTHERS               (A):  2194 ; 0.017 ; 0.015
REMARK   3   BOND ANGLES REFINED ATOMS   (DEGREES):  3312 ; 2.103 ; 1.638
REMARK   3   BOND ANGLES OTHERS          (DEGREES):  5069 ; 1.461 ; 1.585
REMARK   3   TORSION ANGLES, PERIOD 1    (DEGREES):   331 ; 8.470 ; 5.000
REMARK   3   TORSION ANGLES, PERIOD 2    (DEGREES):   101 ;31.466 ;23.168
REMARK   3   TORSION ANGLES, PERIOD 3    (DEGREES):   361 ;15.025 ;15.000
REMARK   3   TORSION ANGLES, PERIOD 4    (DEGREES):    10 ;18.431 ;15.000
REMARK   3   CHIRAL-CENTER RESTRAINTS       (A**3):   294 ; 0.093 ; 0.200
REMARK   3   GENERAL PLANES REFINED ATOMS      (A):  2934 ; 0.014 ; 0.020
REMARK   3   GENERAL PLANES OTHERS             (A):   558 ; 0.004 ; 0.020
REMARK   3
REMARK   3  ISOTROPIC THERMAL FACTOR RESTRAINTS.     COUNT   RMS    WEIGHT
REMARK   3   MAIN-CHAIN BOND REFINED ATOMS  (A**2):  1533 ; 1.105 ; 1.748
REMARK   3   MAIN-CHAIN BOND OTHER ATOMS    (A**2):  1496 ; 1.112 ; 1.625
REMARK   3   MAIN-CHAIN ANGLE REFINED ATOMS (A**2):  1581 ; 2.087 ; 2.480
REMARK   3   MAIN-CHAIN ANGLE OTHER ATOMS (A**2)  :  1582 ; 2.086 ; 2.482
REMARK   3   SIDE-CHAIN BOND REFINED ATOMS  (A**2):  1467 ; 1.279 ; 2.195
REMARK   3   SIDE-CHAIN BOND OTHER ATOMS  (A**2)  :  1468 ; 1.278 ; 2.198
REMARK   3   SIDE-CHAIN ANGLE OTHER ATOMS (A**2)  :  1732 ; 2.194 ; 3.001
REMARK   3   LONG RANGE B REFINED ATOMS (A**2)    :  2668 ;19.402 ;20.956
REMARK   3   LONG RANGE B OTHER ATOMS (A**2)      :  2654 ;19.399 ;20.648
REMARK   3
REMARK   3  NCS RESTRAINTS STATISTICS
REMARK   3   NUMBER OF NCS GROUPS : NULL
REMARK   3
REMARK   3  TWIN DETAILS
REMARK   3   NUMBER OF TWIN DOMAINS  : NULL
REMARK   3
REMARK   3
REMARK   3  TLS DETAILS
REMARK   3   NUMBER OF TLS GROUPS  :    2
REMARK   3   ATOM RECORD CONTAINS SUM OF TLS AND RESIDUAL B FACTORS
REMARK   3
REMARK   3   TLS GROUP :     1
REMARK   3    NUMBER OF COMPONENTS GROUP :    1
REMARK   3    COMPONENTS        C SSSEQI   TO  C SSSEQI
REMARK   3    RESIDUE RANGE :   A    50        A    88
REMARK   3    ORIGIN FOR THE GROUP (A): -13.2039  -1.7189 -18.0571
REMARK   3    T TENSOR
REMARK   3      T11:   0.4965 T22:   0.5336
REMARK   3      T33:   0.5051 T12:   0.3179
REMARK   3      T13:   0.3053 T23:   0.2869
REMARK   3    L TENSOR
REMARK   3      L11:   1.5214 L22:   4.3002
REMARK   3      L33:   0.4939 L12:   0.2474
REMARK   3      L13:   0.2987 L23:   0.5552
REMARK   3    S TENSOR
REMARK   3      S11:   0.4642 S12:   0.3465 S13:   0.7294
REMARK   3      S21:  -0.5112 S22:  -0.5675 S23:  -0.6747
REMARK   3      S31:   0.0262 S32:   0.2174 S33:   0.1033
REMARK   3
REMARK   3   TLS GROUP :     2
REMARK   3    NUMBER OF COMPONENTS GROUP :    1
REMARK   3    COMPONENTS        C SSSEQI   TO  C SSSEQI
REMARK   3    RESIDUE RANGE :   B    16        B   305
REMARK   3    ORIGIN FOR THE GROUP (A): -18.4939   0.8072 -15.7003
REMARK   3    T TENSOR
REMARK   3      T11:   0.4395 T22:   0.4155
REMARK   3      T33:   0.0379 T12:   0.1555
REMARK   3      T13:   0.0436 T23:   0.0211
REMARK   3    L TENSOR
REMARK   3      L11:   1.9152 L22:   0.7519
REMARK   3      L33:   0.5036 L12:  -0.2212
REMARK   3      L13:   0.3387 L23:   0.0676
REMARK   3    S TENSOR
REMARK   3      S11:   0.3544 S12:   0.1398 S13:   0.1696
REMARK   3      S21:  -0.1159 S22:  -0.3358 S23:   0.0505
REMARK   3      S31:   0.0734 S32:   0.0346 S33:  -0.0187
REMARK   3
REMARK   3
REMARK   3  BULK SOLVENT MODELLING.
REMARK   3   METHOD USED :  MASK
REMARK   3   PARAMETERS FOR MASK CALCULATION
REMARK   3   VDW PROBE RADIUS   :   1.20
REMARK   3   ION PROBE RADIUS   :   0.80
REMARK   3   SHRINKAGE RADIUS   :   0.80
REMARK   3
REMARK   3  OTHER REFINEMENT REMARKS:
REMARK   3  HYDROGENS HAVE BEEN ADDED IN THE RIDING POSITIONS
REMARK   3  U VALUES      : WITH TLS ADDED
REMARK   3
CRYST1   42.570   42.570  216.080  90.00  90.00  90.00 P 43 2 2                 


$$$$
Zx1451a_ligand
  PyMOL3.0          3D                             0

 23 25  0  0  0  0  0  0  0  0999 V2000
   -1.7890    8.3430  -16.6790 C   0  0  0  0  0  0  0  0  0  0  0  0
   -2.2280    7.0850  -16.0990 N   0  0  0  0  0  0  0  0  0  0  0  0
   -7.7350    6.2790  -14.4150 O   0  0  0  0  0  0  0  0  0  0  0  0
   -3.4530    6.5410  -16.3150 C   0  0  0  0  0  0  0  0  0  0  0  0
   -8.6710    4.2920  -13.7940 N   0  0  0  0  0  0  0  0  0  0  0  0
   -3.9650    5.5670  -15.4530 C   0  0  0  0  0  0  0  0  0  0  0  0
   -8.7290    3.8720  -10.2160 N   0  0  0  0  0  0  0  0  0  0  0  0
   -5.2130    5.0480  -15.7180 C   0  0  0  0  0  0  0  0  0  0  0  0
   -8.3160    5.1690  -10.3620 N   0  0  0  0  0  0  0  0  0  0  0  0
   -5.9600    5.4900  -16.8050 C   0  0  0  0  0  0  0  0  0  0  0  0
   -4.1360    6.9790  -17.3900 N   0  0  0  0  0  0  0  0  0  0  0  0
   -7.3130    4.9240  -17.1060 C   0  0  0  0  0  0  0  0  0  0  0  0
   -7.5890    4.4970  -18.4060 C   0  0  0  0  0  0  0  0  0  0  0  0
   -8.8150    3.9640  -18.7520 C   0  0  0  0  0  0  0  0  0  0  0  0
   -9.8050    3.8340  -17.8040 C   0  0  0  0  0  0  0  0  0  0  0  0
   -9.5670    4.2410  -16.5110 C   0  0  0  0  0  0  0  0  0  0  0  0
   -8.3310    4.7820  -16.1440 C   0  0  0  0  0  0  0  0  0  0  0  0
   -8.2090    5.1950  -14.7110 C   0  0  0  0  0  0  0  0  0  0  0  0
   -8.5960    4.4190  -12.4000 C   0  0  0  0  0  0  0  0  0  0  0  0
   -8.8970    3.4290  -11.4450 C   0  0  0  0  0  0  0  0  0  0  0  0
   -8.0320    5.9590   -9.1660 C   0  0  0  0  0  0  0  0  0  0  0  0
   -8.2190    5.5300  -11.6610 C   0  0  0  0  0  0  0  0  0  0  0  0
   -5.3500    6.4500  -17.6090 C   0  0  0  0  0  0  0  0  0  0  0  0
  1  2  1  0  0  0  0
  2  4  1  0  0  0  0
  4  6  4  0  0  0  0
  4 11  4  0  0  0  0
  5 19  1  0  0  0  0
  6  8  4  0  0  0  0
  7  9  4  0  0  0  0
  8 10  4  0  0  0  0
  9 21  1  0  0  0  0
  9 22  4  0  0  0  0
 10 12  1  0  0  0  0
 10 23  4  0  0  0  0
 12 13  4  0  0  0  0
 12 17  4  0  0  0  0
 13 14  4  0  0  0  0
 14 15  4  0  0  0  0
 15 16  4  0  0  0  0
 16 17  4  0  0  0  0
 17 18  1  0  0  0  0
  3 18  2  0  0  0  0
  5 18  1  0  0  0  0
 19 20  4  0  0  0  0
 19 22  4  0  0  0  0
  7 20  4  0  0  0  0
 11 23  4  0  0  0  0
M  END
>  <pdb_header>
COMPND    XX01ZVNS2B-x1451_B_301_XX01ZVNS2B-x1291+B+301+1


$$$$
Zx1470a
  PyMOL3.0          3D                             0

 22 24  0  0  0  0  0  0  0  0999 V2000
   -7.6720    0.9710  -14.2560 C   0  0  0  0  0  0  0  0  0  0  0  0
   -4.7920    6.3620  -20.0740 N   0  0  0  0  0  0  0  0  0  0  0  0
   -8.3480    1.9160  -15.0960 O   0  0  0  0  0  0  0  0  0  0  0  0
   -8.2010    3.2020  -14.7570 C   0  0  0  0  0  0  0  0  0  0  0  0
   -7.0990    5.8040  -20.1300 N   0  0  0  0  0  0  0  0  0  0  0  0
   -5.9800    6.0920  -16.6900 O   0  0  0  0  0  0  0  0  0  0  0  0
   -7.7470    4.1770  -15.6140 C   0  0  0  0  0  0  0  0  0  0  0  0
   -7.9020    5.7340  -13.8460 N   0  0  0  0  0  0  0  0  0  0  0  0
   -7.6130    5.4520  -15.1280 C   0  0  0  0  0  0  0  0  0  0  0  0
   -8.6310    4.9390  -11.7560 N   0  0  0  0  0  0  0  0  0  0  0  0
   -7.1160    6.5830  -15.9790 C   0  0  0  0  0  0  0  0  0  0  0  0
   -7.9540    4.7570   -9.1630 N   0  0  0  0  0  0  0  0  0  0  0  0
   -5.9990    6.0840  -18.0620 C   0  0  0  0  0  0  0  0  0  0  0  0
   -8.4880    3.4570  -13.4930 N   0  0  0  0  0  0  0  0  0  0  0  0
   -4.8290    6.3600  -18.7420 C   0  0  0  0  0  0  0  0  0  0  0  0
   -5.9320    6.0880  -20.6980 C   0  0  0  0  0  0  0  0  0  0  0  0
   -7.1320    5.8010  -18.7990 C   0  0  0  0  0  0  0  0  0  0  0  0
   -8.3360    4.7180  -13.0620 C   0  0  0  0  0  0  0  0  0  0  0  0
   -9.4190    3.9730  -10.9890 C   0  0  0  0  0  0  0  0  0  0  0  0
   -8.8120    3.6740   -9.6320 C   0  0  0  0  0  0  0  0  0  0  0  0
   -8.4780    6.0530   -9.5830 C   0  0  0  0  0  0  0  0  0  0  0  0
   -8.3790    6.2140  -11.0870 C   0  0  0  0  0  0  0  0  0  0  0  0
  1  3  1  0  0  0  0
  3  4  1  0  0  0  0
  4  7  4  0  0  0  0
  4 14  4  0  0  0  0
  7  9  4  0  0  0  0
  8  9  4  0  0  0  0
  9 11  1  0  0  0  0
  6 11  1  0  0  0  0
  6 13  1  0  0  0  0
 13 15  4  0  0  0  0
 13 17  4  0  0  0  0
  2 15  4  0  0  0  0
  2 16  4  0  0  0  0
  5 16  4  0  0  0  0
  5 17  4  0  0  0  0
  8 18  4  0  0  0  0
 10 18  1  0  0  0  0
 14 18  4  0  0  0  0
 10 19  1  0  0  0  0
 19 20  1  0  0  0  0
 12 20  1  0  0  0  0
 12 21  1  0  0  0  0
 21 22  1  0  0  0  0
 10 22  1  0  0  0  0
M  END
>  <pdb_header>
HEADER    ----                                    27-OCT-23   XXXX              
TITLE     ---                                                                   
REMARK   3
REMARK   3 REFINEMENT.
REMARK   3   PROGRAM     : REFMAC 5.8.0267   
REMARK   3   AUTHORS     : MURSHUDOV,SKUBAK,LEBEDEV,PANNU,
REMARK   3                 STEINER,NICHOLLS,WINN,LONG,VAGIN
REMARK   3
REMARK   3    REFINEMENT TARGET : MAXIMUM LIKELIHOOD
REMARK   3
REMARK   3  DATA USED IN REFINEMENT.
REMARK   3   RESOLUTION RANGE HIGH (ANGSTROMS) :   2.00
REMARK   3   RESOLUTION RANGE LOW  (ANGSTROMS) :  42.47
REMARK   3   DATA CUTOFF            (SIGMA(F)) : NONE
REMARK   3   COMPLETENESS FOR RANGE        (%) :  99.71
REMARK   3   NUMBER OF REFLECTIONS             :   13620
REMARK   3
REMARK   3  FIT TO DATA USED IN REFINEMENT.
REMARK   3   CROSS-VALIDATION METHOD          : THROUGHOUT
REMARK   3   FREE R VALUE TEST SET SELECTION  : RANDOM
REMARK   3   R VALUE     (WORKING + TEST SET) : 0.22780
REMARK   3   R VALUE            (WORKING SET) :  0.22487
REMARK   3   FREE R VALUE                     :  0.28291
REMARK   3   FREE R VALUE TEST SET SIZE   (%) :  4.8
REMARK   3   FREE R VALUE TEST SET COUNT      :   683
REMARK   3
REMARK   3  FIT IN THE HIGHEST RESOLUTION BIN.
REMARK   3   TOTAL NUMBER OF BINS USED           :      20
REMARK   3   BIN RESOLUTION RANGE HIGH           :    2.000
REMARK   3   BIN RESOLUTION RANGE LOW            :    2.052
REMARK   3   REFLECTION IN BIN     (WORKING SET) :      944
REMARK   3   BIN COMPLETENESS (WORKING+TEST) (%) :    97.54
REMARK   3   BIN R VALUE           (WORKING SET) :    0.406
REMARK   3   BIN FREE R VALUE SET COUNT          :       47
REMARK   3   BIN FREE R VALUE                    :    0.545
REMARK   3
REMARK   3  NUMBER OF NON-HYDROGEN ATOMS USED IN REFINEMENT.
REMARK   3   ALL ATOMS                :     1753
REMARK   3
REMARK   3  B VALUES.
REMARK   3   FROM WILSON PLOT           (A**2) : NULL
REMARK   3   MEAN B VALUE      (OVERALL, A**2) :  60.492
REMARK   3   OVERALL ANISOTROPIC B VALUE.
REMARK   3    B11 (A**2) :     2.10
REMARK   3    B22 (A**2) :     2.10
REMARK   3    B33 (A**2) :    -4.20
REMARK   3    B12 (A**2) :    -0.00
REMARK   3    B13 (A**2) :    -0.00
REMARK   3    B23 (A**2) :     0.00
REMARK   3
REMARK   3  ESTIMATED OVERALL COORDINATE ERROR.
REMARK   3   ESU BASED ON R VALUE                            (A):   0.236
REMARK   3   ESU BASED ON FREE R VALUE                       (A):   0.207
REMARK   3   ESU BASED ON MAXIMUM LIKELIHOOD                 (A):   0.255
REMARK   3   ESU FOR B VALUES BASED ON MAXIMUM LIKELIHOOD (A**2):  10.373
REMARK   3
REMARK   3 CORRELATION COEFFICIENTS.
REMARK   3   CORRELATION COEFFICIENT FO-FC      :   0.967
REMARK   3   CORRELATION COEFFICIENT FO-FC FREE :   0.944
REMARK   3
REMARK   3  RMS DEVIATIONS FROM IDEAL VALUES        COUNT    RMS    WEIGHT
REMARK   3   BOND LENGTHS REFINED ATOMS        (A):  1824 ; 0.007 ; 0.013
REMARK   3   BOND LENGTHS OTHERS               (A):  1590 ; 0.001 ; 0.015
REMARK   3   BOND ANGLES REFINED ATOMS   (DEGREES):  2343 ; 1.522 ; 1.638
REMARK   3   BOND ANGLES OTHERS          (DEGREES):  3667 ; 1.178 ; 1.586
REMARK   3   TORSION ANGLES, PERIOD 1    (DEGREES):   223 ; 8.077 ; 5.000
REMARK   3   TORSION ANGLES, PERIOD 2    (DEGREES):    77 ;33.041 ;22.208
REMARK   3   TORSION ANGLES, PERIOD 3    (DEGREES):   262 ;15.882 ;15.000
REMARK   3   TORSION ANGLES, PERIOD 4    (DEGREES):    10 ;18.052 ;15.000
REMARK   3   CHIRAL-CENTER RESTRAINTS       (A**3):   210 ; 0.055 ; 0.200
REMARK   3   GENERAL PLANES REFINED ATOMS      (A):  1988 ; 0.006 ; 0.020
REMARK   3   GENERAL PLANES OTHERS             (A):   388 ; 0.002 ; 0.020
REMARK   3
REMARK   3  ISOTROPIC THERMAL FACTOR RESTRAINTS.     COUNT   RMS    WEIGHT
REMARK   3   MAIN-CHAIN BOND REFINED ATOMS  (A**2):   896 ; 4.588 ; 6.062
REMARK   3   MAIN-CHAIN BOND OTHER ATOMS    (A**2):   892 ; 4.588 ; 6.055
REMARK   3   MAIN-CHAIN ANGLE REFINED ATOMS (A**2):  1089 ; 6.595 ; 9.055
REMARK   3   MAIN-CHAIN ANGLE OTHER ATOMS (A**2)  :  1090 ; 6.596 ; 9.059
REMARK   3   SIDE-CHAIN BOND REFINED ATOMS  (A**2):   927 ; 4.943 ; 6.658
REMARK   3   SIDE-CHAIN BOND OTHER ATOMS  (A**2)  :   927 ; 4.943 ; 6.657
REMARK   3   SIDE-CHAIN ANGLE OTHER ATOMS (A**2)  :  1255 ; 7.653 ; 9.721
REMARK   3   LONG RANGE B REFINED ATOMS (A**2)    :  1933 ;11.572 ;70.617
REMARK   3   LONG RANGE B OTHER ATOMS (A**2)      :  1917 ;11.513 ;70.365
REMARK   3
REMARK   3  NCS RESTRAINTS STATISTICS
REMARK   3   NUMBER OF NCS GROUPS : NULL
REMARK   3
REMARK   3  TWIN DETAILS
REMARK   3   NUMBER OF TWIN DOMAINS  : NULL
REMARK   3
REMARK   3
REMARK   3  TLS DETAILS
REMARK   3   NUMBER OF TLS GROUPS  : NULL
REMARK   3
REMARK   3
REMARK   3  BULK SOLVENT MODELLING.
REMARK   3   METHOD USED :  MASK
REMARK   3   PARAMETERS FOR MASK CALCULATION
REMARK   3   VDW PROBE RADIUS   :   1.20
REMARK   3   ION PROBE RADIUS   :   0.80
REMARK   3   SHRINKAGE RADIUS   :   0.80
REMARK   3
REMARK   3  OTHER REFINEMENT REMARKS:
REMARK   3  HYDROGENS HAVE BEEN ADDED IN THE RIDING POSITIONS
REMARK   3  U VALUES      : REFINED INDIVIDUALLY
REMARK   3
CRYST1   42.430   42.430  216.260  90.00  90.00  90.00 P 43 2 2                 


$$$$
Zx1470a_ligand
  PyMOL3.0          3D                             0

 22 24  0  0  0  0  0  0  0  0999 V2000
   -7.6720    0.9710  -14.2560 C   0  0  0  0  0  0  0  0  0  0  0  0
   -4.7920    6.3620  -20.0740 N   0  0  0  0  0  0  0  0  0  0  0  0
   -8.3480    1.9160  -15.0960 O   0  0  0  0  0  0  0  0  0  0  0  0
   -8.2010    3.2020  -14.7570 C   0  0  0  0  0  0  0  0  0  0  0  0
   -7.0990    5.8040  -20.1300 N   0  0  0  0  0  0  0  0  0  0  0  0
   -5.9800    6.0920  -16.6900 O   0  0  0  0  0  0  0  0  0  0  0  0
   -7.7470    4.1770  -15.6140 C   0  0  0  0  0  0  0  0  0  0  0  0
   -7.9020    5.7340  -13.8460 N   0  0  0  0  0  0  0  0  0  0  0  0
   -7.6130    5.4520  -15.1280 C   0  0  0  0  0  0  0  0  0  0  0  0
   -8.6310    4.9390  -11.7560 N   0  0  0  0  0  0  0  0  0  0  0  0
   -7.1160    6.5830  -15.9790 C   0  0  0  0  0  0  0  0  0  0  0  0
   -7.9540    4.7570   -9.1630 N   0  0  0  0  0  0  0  0  0  0  0  0
   -5.9990    6.0840  -18.0620 C   0  0  0  0  0  0  0  0  0  0  0  0
   -8.4880    3.4570  -13.4930 N   0  0  0  0  0  0  0  0  0  0  0  0
   -4.8290    6.3600  -18.7420 C   0  0  0  0  0  0  0  0  0  0  0  0
   -5.9320    6.0880  -20.6980 C   0  0  0  0  0  0  0  0  0  0  0  0
   -7.1320    5.8010  -18.7990 C   0  0  0  0  0  0  0  0  0  0  0  0
   -8.3360    4.7180  -13.0620 C   0  0  0  0  0  0  0  0  0  0  0  0
   -9.4190    3.9730  -10.9890 C   0  0  0  0  0  0  0  0  0  0  0  0
   -8.8120    3.6740   -9.6320 C   0  0  0  0  0  0  0  0  0  0  0  0
   -8.4780    6.0530   -9.5830 C   0  0  0  0  0  0  0  0  0  0  0  0
   -8.3790    6.2140  -11.0870 C   0  0  0  0  0  0  0  0  0  0  0  0
  1  3  1  0  0  0  0
  2 16  4  0  0  0  0
  3  4  1  0  0  0  0
  4  7  4  0  0  0  0
  4 14  4  0  0  0  0
  5 17  4  0  0  0  0
  6 13  1  0  0  0  0
  7  9  4  0  0  0  0
  8 18  4  0  0  0  0
  8  9  4  0  0  0  0
  9 11  1  0  0  0  0
 10 19  1  0  0  0  0
 10 22  1  0  0  0  0
  6 11  1  0  0  0  0
 12 21  1  0  0  0  0
 13 15  4  0  0  0  0
 13 17  4  0  0  0  0
  2 15  4  0  0  0  0
  5 16  4  0  0  0  0
 10 18  1  0  0  0  0
 14 18  4  0  0  0  0
 19 20  1  0  0  0  0
 12 20  1  0  0  0  0
 21 22  1  0  0  0  0
M  END
>  <pdb_header>
COMPND    XX01ZVNS2B-x1470_B_301_XX01ZVNS2B-x1291+B+301+1


$$$$
Zx1495a
  PyMOL3.0          3D                             0

 20 22  0  0  0  0  0  0  0  0999 V2000
   -9.0280    1.8270   -8.0140 C   0  0  0  0  0  0  0  0  0  0  0  0
   -8.6050    4.7630  -10.1970 N   0  0  0  0  0  0  0  0  0  0  0  0
   -8.9940    6.4080  -14.8650 O   0  0  0  0  0  0  0  0  0  0  0  0
   -8.8660    2.8970   -9.0420 C   0  0  0  0  0  0  0  0  0  0  0  0
   -7.5810    4.6520  -15.0760 N   0  0  0  0  0  0  0  0  0  0  0  0
   -8.7120    4.2470   -8.9180 C   0  0  0  0  0  0  0  0  0  0  0  0
   -6.5570    4.9770  -19.1450 N   0  0  0  0  0  0  0  0  0  0  0  0
   -8.4350    6.0510  -10.6490 C   0  0  0  0  0  0  0  0  0  0  0  0
   -8.8550    2.5490  -10.3820 N   0  0  0  0  0  0  0  0  0  0  0  0
   -8.3580    6.2830  -11.9640 C   0  0  0  0  0  0  0  0  0  0  0  0
   -8.4460    5.2280  -12.8840 C   0  0  0  0  0  0  0  0  0  0  0  0
   -8.3620    5.4900  -14.3590 C   0  0  0  0  0  0  0  0  0  0  0  0
   -7.2240    4.7690  -16.4510 C   0  0  0  0  0  0  0  0  0  0  0  0
   -5.9890    5.2670  -16.8400 C   0  0  0  0  0  0  0  0  0  0  0  0
   -5.7110    5.3550  -18.1810 C   0  0  0  0  0  0  0  0  0  0  0  0
   -7.7530    4.4950  -18.7700 C   0  0  0  0  0  0  0  0  0  0  0  0
   -8.1280    4.3690  -17.4390 C   0  0  0  0  0  0  0  0  0  0  0  0
   -9.4820    3.8150  -17.0920 C   0  0  0  0  0  0  0  0  0  0  0  0
   -8.6180    3.9270  -12.4480 C   0  0  0  0  0  0  0  0  0  0  0  0
   -8.6920    3.6840  -11.0670 C   0  0  0  0  0  0  0  0  0  0  0  0
  1  4  1  0  0  0  0
  4  6  4  0  0  0  0
  4  9  4  0  0  0  0
  2  6  4  0  0  0  0
  2  8  4  0  0  0  0
  8 10  4  0  0  0  0
 10 11  4  0  0  0  0
 11 12  1  0  0  0  0
  3 12  2  0  0  0  0
  5 12  1  0  0  0  0
  5 13  1  0  0  0  0
 13 14  4  0  0  0  0
  7 15  4  0  0  0  0
 14 15  4  0  0  0  0
  7 16  4  0  0  0  0
 16 17  4  0  0  0  0
 13 17  4  0  0  0  0
 17 18  1  0  0  0  0
 11 19  4  0  0  0  0
 19 20  4  0  0  0  0
  2 20  4  0  0  0  0
  9 20  4  0  0  0  0
M  END
>  <pdb_header>
HEADER    ----                                    09-NOV-23   XXXX              
TITLE     ---                                                                   
REMARK   3
REMARK   3 REFINEMENT.
REMARK   3   PROGRAM     : REFMAC 5.8.0267   
REMARK   3   AUTHORS     : MURSHUDOV,SKUBAK,LEBEDEV,PANNU,
REMARK   3                 STEINER,NICHOLLS,WINN,LONG,VAGIN
REMARK   3
REMARK   3    REFINEMENT TARGET : MAXIMUM LIKELIHOOD
REMARK   3
REMARK   3  DATA USED IN REFINEMENT.
REMARK   3   RESOLUTION RANGE HIGH (ANGSTROMS) :   1.61
REMARK   3   RESOLUTION RANGE LOW  (ANGSTROMS) :  54.12
REMARK   3   DATA CUTOFF            (SIGMA(F)) : NONE
REMARK   3   COMPLETENESS FOR RANGE        (%) :  92.78
REMARK   3   NUMBER OF REFLECTIONS             :   23704
REMARK   3
REMARK   3  FIT TO DATA USED IN REFINEMENT.
REMARK   3   CROSS-VALIDATION METHOD          : THROUGHOUT
REMARK   3   FREE R VALUE TEST SET SELECTION  : RANDOM
REMARK   3   R VALUE     (WORKING + TEST SET) : 0.26686
REMARK   3   R VALUE            (WORKING SET) :  0.26517
REMARK   3   FREE R VALUE                     :  0.29882
REMARK   3   FREE R VALUE TEST SET SIZE   (%) :  5.1
REMARK   3   FREE R VALUE TEST SET COUNT      :  1280
REMARK   3
REMARK   3  FIT IN THE HIGHEST RESOLUTION BIN.
REMARK   3   TOTAL NUMBER OF BINS USED           :      20
REMARK   3   BIN RESOLUTION RANGE HIGH           :    1.611
REMARK   3   BIN RESOLUTION RANGE LOW            :    1.653
REMARK   3   REFLECTION IN BIN     (WORKING SET) :      471
REMARK   3   BIN COMPLETENESS (WORKING+TEST) (%) :    25.62
REMARK   3   BIN R VALUE           (WORKING SET) :    0.538
REMARK   3   BIN FREE R VALUE SET COUNT          :       24
REMARK   3   BIN FREE R VALUE                    :    0.499
REMARK   3
REMARK   3  NUMBER OF NON-HYDROGEN ATOMS USED IN REFINEMENT.
REMARK   3   ALL ATOMS                :     2425
REMARK   3
REMARK   3  B VALUES.
REMARK   3   FROM WILSON PLOT           (A**2) : NULL
REMARK   3   MEAN B VALUE      (OVERALL, A**2) :  49.482
REMARK   3   OVERALL ANISOTROPIC B VALUE.
REMARK   3    B11 (A**2) :    -1.10
REMARK   3    B22 (A**2) :    -1.10
REMARK   3    B33 (A**2) :     2.19
REMARK   3    B12 (A**2) :     0.00
REMARK   3    B13 (A**2) :     0.00
REMARK   3    B23 (A**2) :     0.00
REMARK   3
REMARK   3  ESTIMATED OVERALL COORDINATE ERROR.
REMARK   3   ESU BASED ON R VALUE                            (A):   0.186
REMARK   3   ESU BASED ON FREE R VALUE                       (A):   0.161
REMARK   3   ESU BASED ON MAXIMUM LIKELIHOOD                 (A):   0.334
REMARK   3   ESU FOR B VALUES BASED ON MAXIMUM LIKELIHOOD (A**2):  24.948
REMARK   3
REMARK   3 CORRELATION COEFFICIENTS.
REMARK   3   CORRELATION COEFFICIENT FO-FC      :   0.948
REMARK   3   CORRELATION COEFFICIENT FO-FC FREE :   0.935
REMARK   3
REMARK   3  RMS DEVIATIONS FROM IDEAL VALUES        COUNT    RMS    WEIGHT
REMARK   3   BOND LENGTHS REFINED ATOMS        (A):  2945 ; 0.020 ; 0.014
REMARK   3   BOND LENGTHS OTHERS               (A):  2182 ; 0.011 ; 0.015
REMARK   3   BOND ANGLES REFINED ATOMS   (DEGREES):  3270 ; 2.178 ; 1.636
REMARK   3   BOND ANGLES OTHERS          (DEGREES):  5063 ; 1.436 ; 1.582
REMARK   3   TORSION ANGLES, PERIOD 1    (DEGREES):   331 ; 8.588 ; 5.000
REMARK   3   TORSION ANGLES, PERIOD 2    (DEGREES):    95 ;31.111 ;23.053
REMARK   3   TORSION ANGLES, PERIOD 3    (DEGREES):   361 ;15.887 ;15.000
REMARK   3   TORSION ANGLES, PERIOD 4    (DEGREES):    10 ;19.868 ;15.000
REMARK   3   CHIRAL-CENTER RESTRAINTS       (A**3):   297 ; 0.087 ; 0.200
REMARK   3   GENERAL PLANES REFINED ATOMS      (A):  2866 ; 0.014 ; 0.020
REMARK   3   GENERAL PLANES OTHERS             (A):   522 ; 0.007 ; 0.020
REMARK   3
REMARK   3  ISOTROPIC THERMAL FACTOR RESTRAINTS.     COUNT   RMS    WEIGHT
REMARK   3   MAIN-CHAIN BOND REFINED ATOMS  (A**2):  1514 ; 0.641 ; 1.273
REMARK   3   MAIN-CHAIN BOND OTHER ATOMS    (A**2):  1458 ; 0.644 ; 1.094
REMARK   3   MAIN-CHAIN ANGLE REFINED ATOMS (A**2):  1569 ; 1.296 ; 1.642
REMARK   3   MAIN-CHAIN ANGLE OTHER ATOMS (A**2)  :  1570 ; 1.295 ; 1.645
REMARK   3   SIDE-CHAIN BOND REFINED ATOMS  (A**2):  1431 ; 0.532 ; 1.345
REMARK   3   SIDE-CHAIN BOND OTHER ATOMS  (A**2)  :  1419 ; 0.524 ; 1.268
REMARK   3   SIDE-CHAIN ANGLE OTHER ATOMS (A**2)  :  1690 ; 0.988 ; 1.778
REMARK   3   LONG RANGE B REFINED ATOMS (A**2)    :  2618 ;11.394 ;12.553
REMARK   3   LONG RANGE B OTHER ATOMS (A**2)      :  2592 ;11.358 ;11.891
REMARK   3
REMARK   3  NCS RESTRAINTS STATISTICS
REMARK   3   NUMBER OF NCS GROUPS : NULL
REMARK   3
REMARK   3  TWIN DETAILS
REMARK   3   NUMBER OF TWIN DOMAINS  : NULL
REMARK   3
REMARK   3
REMARK   3  TLS DETAILS
REMARK   3   NUMBER OF TLS GROUPS  :    2
REMARK   3   ATOM RECORD CONTAINS SUM OF TLS AND RESIDUAL B FACTORS
REMARK   3
REMARK   3   TLS GROUP :     1
REMARK   3    NUMBER OF COMPONENTS GROUP :    1
REMARK   3    COMPONENTS        C SSSEQI   TO  C SSSEQI
REMARK   3    RESIDUE RANGE :   A    50        A    88
REMARK   3    ORIGIN FOR THE GROUP (A): -13.4199  -1.8759 -19.2400
REMARK   3    T TENSOR
REMARK   3      T11:   0.4606 T22:   0.4179
REMARK   3      T33:   0.1139 T12:   0.2326
REMARK   3      T13:   0.1466 T23:   0.1059
REMARK   3    L TENSOR
REMARK   3      L11:   3.0508 L22:   3.7718
REMARK   3      L33:   2.0182 L12:  -1.1446
REMARK   3      L13:  -0.4047 L23:   0.7637
REMARK   3    S TENSOR
REMARK   3      S11:   0.5688 S12:   0.2852 S13:   0.4552
REMARK   3      S21:  -0.4881 S22:  -0.4170 S23:  -0.5398
REMARK   3      S31:  -0.0659 S32:   0.2930 S33:  -0.1517
REMARK   3
REMARK   3   TLS GROUP :     2
REMARK   3    NUMBER OF COMPONENTS GROUP :    1
REMARK   3    COMPONENTS        C SSSEQI   TO  C SSSEQI
REMARK   3    RESIDUE RANGE :   B    16        B   305
REMARK   3    ORIGIN FOR THE GROUP (A): -18.8047   1.0969 -15.6974
REMARK   3    T TENSOR
REMARK   3      T11:   0.5913 T22:   0.5654
REMARK   3      T33:   0.1515 T12:   0.1389
REMARK   3      T13:   0.0855 T23:  -0.0085
REMARK   3    L TENSOR
REMARK   3      L11:   0.9653 L22:   1.1025
REMARK   3      L33:   1.3351 L12:  -0.8407
REMARK   3      L13:   0.1992 L23:   0.2868
REMARK   3    S TENSOR
REMARK   3      S11:   0.3212 S12:   0.1797 S13:   0.1240
REMARK   3      S21:  -0.1656 S22:  -0.3588 S23:   0.0275
REMARK   3      S31:   0.1293 S32:   0.1057 S33:   0.0376
REMARK   3
REMARK   3
REMARK   3  BULK SOLVENT MODELLING.
REMARK   3   METHOD USED :  MASK
REMARK   3   PARAMETERS FOR MASK CALCULATION
REMARK   3   VDW PROBE RADIUS   :   1.20
REMARK   3   ION PROBE RADIUS   :   0.80
REMARK   3   SHRINKAGE RADIUS   :   0.80
REMARK   3
REMARK   3  OTHER REFINEMENT REMARKS:
REMARK   3  HYDROGENS HAVE BEEN ADDED IN THE RIDING POSITIONS
REMARK   3  U VALUES      : WITH TLS ADDED
REMARK   3
CRYST1   42.477   42.477  216.498  90.00  90.00  90.00 P 43 2 2                 


$$$$
Zx1495a_ligand
  PyMOL3.0          3D                             0

 20 22  0  0  0  0  0  0  0  0999 V2000
   -9.0280    1.8270   -8.0140 C   0  0  0  0  0  0  0  0  0  0  0  0
   -8.6050    4.7630  -10.1970 N   0  0  0  0  0  0  0  0  0  0  0  0
   -8.9940    6.4080  -14.8650 O   0  0  0  0  0  0  0  0  0  0  0  0
   -8.8660    2.8970   -9.0420 C   0  0  0  0  0  0  0  0  0  0  0  0
   -7.5810    4.6520  -15.0760 N   0  0  0  0  0  0  0  0  0  0  0  0
   -8.7120    4.2470   -8.9180 C   0  0  0  0  0  0  0  0  0  0  0  0
   -6.5570    4.9770  -19.1450 N   0  0  0  0  0  0  0  0  0  0  0  0
   -8.4350    6.0510  -10.6490 C   0  0  0  0  0  0  0  0  0  0  0  0
   -8.8550    2.5490  -10.3820 N   0  0  0  0  0  0  0  0  0  0  0  0
   -8.3580    6.2830  -11.9640 C   0  0  0  0  0  0  0  0  0  0  0  0
   -8.4460    5.2280  -12.8840 C   0  0  0  0  0  0  0  0  0  0  0  0
   -8.3620    5.4900  -14.3590 C   0  0  0  0  0  0  0  0  0  0  0  0
   -7.2240    4.7690  -16.4510 C   0  0  0  0  0  0  0  0  0  0  0  0
   -5.9890    5.2670  -16.8400 C   0  0  0  0  0  0  0  0  0  0  0  0
   -5.7110    5.3550  -18.1810 C   0  0  0  0  0  0  0  0  0  0  0  0
   -7.7530    4.4950  -18.7700 C   0  0  0  0  0  0  0  0  0  0  0  0
   -8.1280    4.3690  -17.4390 C   0  0  0  0  0  0  0  0  0  0  0  0
   -9.4820    3.8150  -17.0920 C   0  0  0  0  0  0  0  0  0  0  0  0
   -8.6180    3.9270  -12.4480 C   0  0  0  0  0  0  0  0  0  0  0  0
   -8.6920    3.6840  -11.0670 C   0  0  0  0  0  0  0  0  0  0  0  0
  1  4  1  0  0  0  0
  2  8  4  0  0  0  0
  2 20  4  0  0  0  0
  4  6  4  0  0  0  0
  4  9  4  0  0  0  0
  5 13  1  0  0  0  0
  2  6  4  0  0  0  0
  7 16  4  0  0  0  0
  8 10  4  0  0  0  0
 10 11  4  0  0  0  0
 11 12  1  0  0  0  0
 11 19  4  0  0  0  0
  3 12  2  0  0  0  0
  5 12  1  0  0  0  0
 13 14  4  0  0  0  0
 13 17  4  0  0  0  0
 14 15  4  0  0  0  0
  7 15  4  0  0  0  0
 16 17  4  0  0  0  0
 17 18  1  0  0  0  0
 19 20  4  0  0  0  0
  9 20  4  0  0  0  0
M  END
>  <pdb_header>
COMPND    XX01ZVNS2B-x1495_B_301_XX01ZVNS2B-x1291+B+301+1


$$$$
Zx1596a
  PyMOL3.0          3D                             0

 26 29  0  0  0  0  0  0  0  0999 V2000
  -10.5690    4.4900  -18.5980 C   0  0  0  0  0  0  0  0  0  0  0  0
   -1.8420    4.2200  -13.3400 N   0  0  0  0  0  0  0  0  0  0  0  0
  -10.1240    4.1670  -17.2720 O   0  0  0  0  0  0  0  0  0  0  0  0
   -8.8880    4.5540  -16.9040 C   0  0  0  0  0  0  0  0  0  0  0  0
   -3.0170    2.1390  -13.2410 N   0  0  0  0  0  0  0  0  0  0  0  0
   -5.6870    5.9240  -13.6890 O   0  0  0  0  0  0  0  0  0  0  0  0
   -8.5920    4.6360  -15.5580 C   0  0  0  0  0  0  0  0  0  0  0  0
   -5.1220    2.9590  -13.4270 N   0  0  0  0  0  0  0  0  0  0  0  0
   -7.3220    5.0140  -15.1880 C   0  0  0  0  0  0  0  0  0  0  0  0
   -4.2240    3.9620  -13.4500 N   0  0  0  0  0  0  0  0  0  0  0  0
   -6.8910    5.1400  -13.7530 C   0  0  0  0  0  0  0  0  0  0  0  0
   -6.4030    5.3190  -16.1190 N   0  0  0  0  0  0  0  0  0  0  0  0
   -4.4740    5.3150  -13.5770 C   0  0  0  0  0  0  0  0  0  0  0  0
   -5.8290    5.5190  -18.3720 N   0  0  0  0  0  0  0  0  0  0  0  0
   -3.3760    6.1310  -13.5770 C   0  0  0  0  0  0  0  0  0  0  0  0
   -4.2850    6.8340  -20.4830 N   0  0  0  0  0  0  0  0  0  0  0  0
   -2.0900    5.5660  -13.4540 C   0  0  0  0  0  0  0  0  0  0  0  0
   -7.9820    4.8430  -17.8390 N   0  0  0  0  0  0  0  0  0  0  0  0
   -0.8640    6.4230  -13.4480 C   0  0  0  0  0  0  0  0  0  0  0  0
   -2.9630    3.4630  -13.3400 C   0  0  0  0  0  0  0  0  0  0  0  0
   -4.3310    1.8860  -13.2980 C   0  0  0  0  0  0  0  0  0  0  0  0
   -6.7600    5.2370  -17.4220 C   0  0  0  0  0  0  0  0  0  0  0  0
   -6.1020    5.3430  -19.7950 C   0  0  0  0  0  0  0  0  0  0  0  0
   -4.8180    5.4790  -20.5850 C   0  0  0  0  0  0  0  0  0  0  0  0
   -4.4240    7.3710  -19.1310 C   0  0  0  0  0  0  0  0  0  0  0  0
   -4.6060    6.2740  -18.0990 C   0  0  0  0  0  0  0  0  0  0  0  0
  1  3  1  0  0  0  0
  3  4  1  0  0  0  0
  4  7  4  0  0  0  0
  4 18  4  0  0  0  0
  7  9  4  0  0  0  0
  8 10  4  0  0  0  0
  9 11  1  0  0  0  0
  9 12  4  0  0  0  0
  6 11  1  0  0  0  0
  6 13  1  0  0  0  0
 10 13  4  0  0  0  0
 13 15  4  0  0  0  0
 15 17  4  0  0  0  0
  2 17  4  0  0  0  0
 17 19  1  0  0  0  0
  2 20  4  0  0  0  0
  5 20  4  0  0  0  0
 10 20  4  0  0  0  0
  5 21  4  0  0  0  0
  8 21  4  0  0  0  0
 12 22  4  0  0  0  0
 14 22  1  0  0  0  0
 18 22  4  0  0  0  0
 14 23  1  0  0  0  0
 23 24  1  0  0  0  0
 16 24  1  0  0  0  0
 16 25  1  0  0  0  0
 25 26  1  0  0  0  0
 14 26  1  0  0  0  0
M  END
>  <pdb_header>
HEADER    ----                                    06-DEC-23   XXXX              
TITLE     ---                                                                   
REMARK   3
REMARK   3 REFINEMENT.
REMARK   3   PROGRAM     : REFMAC 5.8.0267   
REMARK   3   AUTHORS     : MURSHUDOV,SKUBAK,LEBEDEV,PANNU,
REMARK   3                 STEINER,NICHOLLS,WINN,LONG,VAGIN
REMARK   3
REMARK   3    REFINEMENT TARGET : MAXIMUM LIKELIHOOD
REMARK   3
REMARK   3  DATA USED IN REFINEMENT.
REMARK   3   RESOLUTION RANGE HIGH (ANGSTROMS) :   1.86
REMARK   3   RESOLUTION RANGE LOW  (ANGSTROMS) :  42.34
REMARK   3   DATA CUTOFF            (SIGMA(F)) : NONE
REMARK   3   COMPLETENESS FOR RANGE        (%) :  98.54
REMARK   3   NUMBER OF REFLECTIONS             :   16488
REMARK   3
REMARK   3  FIT TO DATA USED IN REFINEMENT.
REMARK   3   CROSS-VALIDATION METHOD          : THROUGHOUT
REMARK   3   FREE R VALUE TEST SET SELECTION  : RANDOM
REMARK   3   R VALUE     (WORKING + TEST SET) : 0.23011
REMARK   3   R VALUE            (WORKING SET) :  0.22710
REMARK   3   FREE R VALUE                     :  0.28637
REMARK   3   FREE R VALUE TEST SET SIZE   (%) :  4.9
REMARK   3   FREE R VALUE TEST SET COUNT      :   853
REMARK   3
REMARK   3  FIT IN THE HIGHEST RESOLUTION BIN.
REMARK   3   TOTAL NUMBER OF BINS USED           :      20
REMARK   3   BIN RESOLUTION RANGE HIGH           :    1.860
REMARK   3   BIN RESOLUTION RANGE LOW            :    1.908
REMARK   3   REFLECTION IN BIN     (WORKING SET) :     1154
REMARK   3   BIN COMPLETENESS (WORKING+TEST) (%) :    97.61
REMARK   3   BIN R VALUE           (WORKING SET) :    0.513
REMARK   3   BIN FREE R VALUE SET COUNT          :       73
REMARK   3   BIN FREE R VALUE                    :    0.631
REMARK   3
REMARK   3  NUMBER OF NON-HYDROGEN ATOMS USED IN REFINEMENT.
REMARK   3   ALL ATOMS                :     2214
REMARK   3
REMARK   3  B VALUES.
REMARK   3   FROM WILSON PLOT           (A**2) : NULL
REMARK   3   MEAN B VALUE      (OVERALL, A**2) :  63.471
REMARK   3   OVERALL ANISOTROPIC B VALUE.
REMARK   3    B11 (A**2) :     2.34
REMARK   3    B22 (A**2) :     2.34
REMARK   3    B33 (A**2) :    -4.69
REMARK   3    B12 (A**2) :    -0.00
REMARK   3    B13 (A**2) :    -0.00
REMARK   3    B23 (A**2) :    -0.00
REMARK   3
REMARK   3  ESTIMATED OVERALL COORDINATE ERROR.
REMARK   3   ESU BASED ON R VALUE                            (A):   0.233
REMARK   3   ESU BASED ON FREE R VALUE                       (A):   0.199
REMARK   3   ESU BASED ON MAXIMUM LIKELIHOOD                 (A):   0.272
REMARK   3   ESU FOR B VALUES BASED ON MAXIMUM LIKELIHOOD (A**2):  20.588
REMARK   3
REMARK   3 CORRELATION COEFFICIENTS.
REMARK   3   CORRELATION COEFFICIENT FO-FC      :   0.963
REMARK   3   CORRELATION COEFFICIENT FO-FC FREE :   0.941
REMARK   3
REMARK   3  RMS DEVIATIONS FROM IDEAL VALUES        COUNT    RMS    WEIGHT
REMARK   3   BOND LENGTHS REFINED ATOMS        (A):  2543 ; 0.011 ; 0.014
REMARK   3   BOND LENGTHS OTHERS               (A):  1996 ; 0.005 ; 0.015
REMARK   3   BOND ANGLES REFINED ATOMS   (DEGREES):  2913 ; 1.792 ; 1.646
REMARK   3   BOND ANGLES OTHERS          (DEGREES):  4584 ; 1.232 ; 1.590
REMARK   3   TORSION ANGLES, PERIOD 1    (DEGREES):   277 ; 7.640 ; 5.000
REMARK   3   TORSION ANGLES, PERIOD 2    (DEGREES):   104 ;30.353 ;20.192
REMARK   3   TORSION ANGLES, PERIOD 3    (DEGREES):   337 ;17.375 ;15.000
REMARK   3   TORSION ANGLES, PERIOD 4    (DEGREES):    19 ;16.804 ;15.000
REMARK   3   CHIRAL-CENTER RESTRAINTS       (A**3):   249 ; 0.072 ; 0.200
REMARK   3   GENERAL PLANES REFINED ATOMS      (A):  2488 ; 0.009 ; 0.020
REMARK   3   GENERAL PLANES OTHERS             (A):   512 ; 0.002 ; 0.020
REMARK   3
REMARK   3  ISOTROPIC THERMAL FACTOR RESTRAINTS.     COUNT   RMS    WEIGHT
REMARK   3   MAIN-CHAIN BOND REFINED ATOMS  (A**2):  1237 ; 1.853 ; 3.353
REMARK   3   MAIN-CHAIN BOND OTHER ATOMS    (A**2):  1180 ; 1.897 ; 3.202
REMARK   3   MAIN-CHAIN ANGLE REFINED ATOMS (A**2):  1335 ; 3.254 ; 4.688
REMARK   3   MAIN-CHAIN ANGLE OTHER ATOMS (A**2)  :  1336 ; 3.253 ; 4.692
REMARK   3   SIDE-CHAIN BOND REFINED ATOMS  (A**2):  1306 ; 1.916 ; 3.792
REMARK   3   SIDE-CHAIN BOND OTHER ATOMS  (A**2)  :  1307 ; 1.915 ; 3.793
REMARK   3   SIDE-CHAIN ANGLE OTHER ATOMS (A**2)  :  1579 ; 3.335 ; 5.265
REMARK   3   LONG RANGE B REFINED ATOMS (A**2)    :  2204 ;10.748 ;32.739
REMARK   3   LONG RANGE B OTHER ATOMS (A**2)      :  2187 ;10.745 ;32.348
REMARK   3
REMARK   3  NCS RESTRAINTS STATISTICS
REMARK   3   NUMBER OF NCS GROUPS : NULL
REMARK   3
REMARK   3  TWIN DETAILS
REMARK   3   NUMBER OF TWIN DOMAINS  : NULL
REMARK   3
REMARK   3
REMARK   3  TLS DETAILS
REMARK   3   NUMBER OF TLS GROUPS  :    2
REMARK   3   ATOM RECORD CONTAINS SUM OF TLS AND RESIDUAL B FACTORS
REMARK   3
REMARK   3   TLS GROUP :     1
REMARK   3    NUMBER OF COMPONENTS GROUP :    1
REMARK   3    COMPONENTS        C SSSEQI   TO  C SSSEQI
REMARK   3    RESIDUE RANGE :   A    50        A    88
REMARK   3    ORIGIN FOR THE GROUP (A): -12.8555  -2.5584 -19.1740
REMARK   3    T TENSOR
REMARK   3      T11:   0.3274 T22:   0.3853
REMARK   3      T33:   0.1954 T12:   0.3154
REMARK   3      T13:   0.0888 T23:   0.0741
REMARK   3    L TENSOR
REMARK   3      L11:   1.7443 L22:   2.1604
REMARK   3      L33:   0.4603 L12:  -0.0050
REMARK   3      L13:  -0.4453 L23:   0.0230
REMARK   3    S TENSOR
REMARK   3      S11:   0.4492 S12:   0.2585 S13:   0.2349
REMARK   3      S21:  -0.3267 S22:  -0.3737 S23:  -0.1740
REMARK   3      S31:   0.0057 S32:   0.1933 S33:  -0.0755
REMARK   3
REMARK   3   TLS GROUP :     2
REMARK   3    NUMBER OF COMPONENTS GROUP :    1
REMARK   3    COMPONENTS        C SSSEQI   TO  C SSSEQI
REMARK   3    RESIDUE RANGE :   B    16        B   305
REMARK   3    ORIGIN FOR THE GROUP (A): -17.7977  -0.0788 -15.9618
REMARK   3    T TENSOR
REMARK   3      T11:   0.3457 T22:   0.4283
REMARK   3      T33:   0.3000 T12:   0.2607
REMARK   3      T13:   0.0886 T23:   0.0408
REMARK   3    L TENSOR
REMARK   3      L11:   0.9533 L22:   0.2509
REMARK   3      L33:   0.9006 L12:   0.0363
REMARK   3      L13:   0.5293 L23:  -0.1148
REMARK   3    S TENSOR
REMARK   3      S11:   0.4353 S12:   0.1505 S13:   0.1660
REMARK   3      S21:  -0.1136 S22:  -0.3429 S23:   0.0523
REMARK   3      S31:   0.1938 S32:   0.1611 S33:  -0.0924
REMARK   3
REMARK   3
REMARK   3  BULK SOLVENT MODELLING.
REMARK   3   METHOD USED :  MASK
REMARK   3   PARAMETERS FOR MASK CALCULATION
REMARK   3   VDW PROBE RADIUS   :   1.20
REMARK   3   ION PROBE RADIUS   :   0.80
REMARK   3   SHRINKAGE RADIUS   :   0.80
REMARK   3
REMARK   3  OTHER REFINEMENT REMARKS:
REMARK   3  HYDROGENS HAVE BEEN ADDED IN THE RIDING POSITIONS
REMARK   3  U VALUES      : WITH TLS ADDED
REMARK   3
CRYST1   42.300   42.300  216.490  90.00  90.00  90.00 P 43 2 2                 


$$$$
Zx1596a_ligand
  PyMOL3.0          3D                             0

 26 29  0  0  0  0  0  0  0  0999 V2000
  -10.5690    4.4900  -18.5980 C   0  0  0  0  0  0  0  0  0  0  0  0
   -1.8420    4.2200  -13.3400 N   0  0  0  0  0  0  0  0  0  0  0  0
  -10.1240    4.1670  -17.2720 O   0  0  0  0  0  0  0  0  0  0  0  0
   -8.8880    4.5540  -16.9040 C   0  0  0  0  0  0  0  0  0  0  0  0
   -3.0170    2.1390  -13.2410 N   0  0  0  0  0  0  0  0  0  0  0  0
   -5.6870    5.9240  -13.6890 O   0  0  0  0  0  0  0  0  0  0  0  0
   -8.5920    4.6360  -15.5580 C   0  0  0  0  0  0  0  0  0  0  0  0
   -5.1220    2.9590  -13.4270 N   0  0  0  0  0  0  0  0  0  0  0  0
   -7.3220    5.0140  -15.1880 C   0  0  0  0  0  0  0  0  0  0  0  0
   -4.2240    3.9620  -13.4500 N   0  0  0  0  0  0  0  0  0  0  0  0
   -6.8910    5.1400  -13.7530 C   0  0  0  0  0  0  0  0  0  0  0  0
   -6.4030    5.3190  -16.1190 N   0  0  0  0  0  0  0  0  0  0  0  0
   -4.4740    5.3150  -13.5770 C   0  0  0  0  0  0  0  0  0  0  0  0
   -5.8290    5.5190  -18.3720 N   0  0  0  0  0  0  0  0  0  0  0  0
   -3.3760    6.1310  -13.5770 C   0  0  0  0  0  0  0  0  0  0  0  0
   -4.2850    6.8340  -20.4830 N   0  0  0  0  0  0  0  0  0  0  0  0
   -2.0900    5.5660  -13.4540 C   0  0  0  0  0  0  0  0  0  0  0  0
   -7.9820    4.8430  -17.8390 N   0  0  0  0  0  0  0  0  0  0  0  0
   -0.8640    6.4230  -13.4480 C   0  0  0  0  0  0  0  0  0  0  0  0
   -2.9630    3.4630  -13.3400 C   0  0  0  0  0  0  0  0  0  0  0  0
   -4.3310    1.8860  -13.2980 C   0  0  0  0  0  0  0  0  0  0  0  0
   -6.7600    5.2370  -17.4220 C   0  0  0  0  0  0  0  0  0  0  0  0
   -6.1020    5.3430  -19.7950 C   0  0  0  0  0  0  0  0  0  0  0  0
   -4.8180    5.4790  -20.5850 C   0  0  0  0  0  0  0  0  0  0  0  0
   -4.4240    7.3710  -19.1310 C   0  0  0  0  0  0  0  0  0  0  0  0
   -4.6060    6.2740  -18.0990 C   0  0  0  0  0  0  0  0  0  0  0  0
  1  3  1  0  0  0  0
  2 20  4  0  0  0  0
  3  4  1  0  0  0  0
  4  7  4  0  0  0  0
  4 18  4  0  0  0  0
  5 21  4  0  0  0  0
  6 13  1  0  0  0  0
  7  9  4  0  0  0  0
  8 10  4  0  0  0  0
  9 11  1  0  0  0  0
  9 12  4  0  0  0  0
  6 11  1  0  0  0  0
 12 22  4  0  0  0  0
 10 13  4  0  0  0  0
 13 15  4  0  0  0  0
 14 23  1  0  0  0  0
 14 26  1  0  0  0  0
 15 17  4  0  0  0  0
 16 25  1  0  0  0  0
  2 17  4  0  0  0  0
 17 19  1  0  0  0  0
  5 20  4  0  0  0  0
 10 20  4  0  0  0  0
  8 21  4  0  0  0  0
 14 22  1  0  0  0  0
 18 22  4  0  0  0  0
 23 24  1  0  0  0  0
 16 24  1  0  0  0  0
 25 26  1  0  0  0  0
M  END
>  <pdb_header>
COMPND    XX01ZVNS2B-x1596_B_301_XX01ZVNS2B-x1291+B+301+1


$$$$
Zx1664a
  PyMOL3.0          3D                             0

 12 13  0  0  0  0  0  0  0  0999 V2000
   -4.8170    5.3960  -18.3530 C   0  0  0  0  0  0  0  0  0  0  0  0
   -3.6920    5.6050  -19.0700 N   0  0  0  0  0  0  0  0  0  0  0  0
   -4.8020    5.6040  -16.9400 C   0  0  0  0  0  0  0  0  0  0  0  0
   -5.9000    5.0000  -19.0150 N   0  0  0  0  0  0  0  0  0  0  0  0
   -5.9330    5.3930  -16.2320 C   0  0  0  0  0  0  0  0  0  0  0  0
   -7.1100    4.9670  -16.8920 C   0  0  0  0  0  0  0  0  0  0  0  0
   -8.3460    4.7070  -16.2320 C   0  0  0  0  0  0  0  0  0  0  0  0
   -9.4470    4.2900  -16.9190 C   0  0  0  0  0  0  0  0  0  0  0  0
   -9.3780    4.1100  -18.3120 C   0  0  0  0  0  0  0  0  0  0  0  0
   -8.2150    4.3440  -18.9850 C   0  0  0  0  0  0  0  0  0  0  0  0
   -7.0570    4.7770  -18.3000 C   0  0  0  0  0  0  0  0  0  0  0  0
   -8.4780    4.9170  -14.5140 Cl  0  0  0  0  0  0  0  0  0  0  0  0
  1  2  1  0  0  0  0
  1  3  4  0  0  0  0
  1  4  4  0  0  0  0
  3  5  4  0  0  0  0
  5  6  4  0  0  0  0
  6  7  4  0  0  0  0
  6 11  4  0  0  0  0
  7  8  4  0  0  0  0
  7 12  1  0  0  0  0
  8  9  4  0  0  0  0
  9 10  4  0  0  0  0
 10 11  4  0  0  0  0
  4 11  4  0  0  0  0
M  END
>  <pdb_header>
HEADER    ----                                    05-DEC-23   XXXX              
TITLE     ---                                                                   
REMARK   3
REMARK   3 REFINEMENT.
REMARK   3   PROGRAM     : REFMAC 5.8.0267   
REMARK   3   AUTHORS     : MURSHUDOV,SKUBAK,LEBEDEV,PANNU,
REMARK   3                 STEINER,NICHOLLS,WINN,LONG,VAGIN
REMARK   3
REMARK   3    REFINEMENT TARGET : MAXIMUM LIKELIHOOD
REMARK   3
REMARK   3  DATA USED IN REFINEMENT.
REMARK   3   RESOLUTION RANGE HIGH (ANGSTROMS) :   2.13
REMARK   3   RESOLUTION RANGE LOW  (ANGSTROMS) :  42.68
REMARK   3   DATA CUTOFF            (SIGMA(F)) : NONE
REMARK   3   COMPLETENESS FOR RANGE        (%) :  97.63
REMARK   3   NUMBER OF REFLECTIONS             :   11252
REMARK   3
REMARK   3  FIT TO DATA USED IN REFINEMENT.
REMARK   3   CROSS-VALIDATION METHOD          : THROUGHOUT
REMARK   3   FREE R VALUE TEST SET SELECTION  : RANDOM
REMARK   3   R VALUE     (WORKING + TEST SET) : 0.22613
REMARK   3   R VALUE            (WORKING SET) :  0.22284
REMARK   3   FREE R VALUE                     :  0.28928
REMARK   3   FREE R VALUE TEST SET SIZE   (%) :  4.7
REMARK   3   FREE R VALUE TEST SET COUNT      :   560
REMARK   3
REMARK   3  FIT IN THE HIGHEST RESOLUTION BIN.
REMARK   3   TOTAL NUMBER OF BINS USED           :      20
REMARK   3   BIN RESOLUTION RANGE HIGH           :    2.130
REMARK   3   BIN RESOLUTION RANGE LOW            :    2.185
REMARK   3   REFLECTION IN BIN     (WORKING SET) :      718
REMARK   3   BIN COMPLETENESS (WORKING+TEST) (%) :    88.82
REMARK   3   BIN R VALUE           (WORKING SET) :    0.437
REMARK   3   BIN FREE R VALUE SET COUNT          :       29
REMARK   3   BIN FREE R VALUE                    :    0.428
REMARK   3
REMARK   3  NUMBER OF NON-HYDROGEN ATOMS USED IN REFINEMENT.
REMARK   3   ALL ATOMS                :     1883
REMARK   3
REMARK   3  B VALUES.
REMARK   3   FROM WILSON PLOT           (A**2) : NULL
REMARK   3   MEAN B VALUE      (OVERALL, A**2) :  63.002
REMARK   3   OVERALL ANISOTROPIC B VALUE.
REMARK   3    B11 (A**2) :     2.12
REMARK   3    B22 (A**2) :     2.12
REMARK   3    B33 (A**2) :    -4.24
REMARK   3    B12 (A**2) :    -0.00
REMARK   3    B13 (A**2) :    -0.00
REMARK   3    B23 (A**2) :    -0.00
REMARK   3
REMARK   3  ESTIMATED OVERALL COORDINATE ERROR.
REMARK   3   ESU BASED ON R VALUE                            (A):   0.346
REMARK   3   ESU BASED ON FREE R VALUE                       (A):   0.258
REMARK   3   ESU BASED ON MAXIMUM LIKELIHOOD                 (A):   0.323
REMARK   3   ESU FOR B VALUES BASED ON MAXIMUM LIKELIHOOD (A**2):  14.658
REMARK   3
REMARK   3 CORRELATION COEFFICIENTS.
REMARK   3   CORRELATION COEFFICIENT FO-FC      :   0.964
REMARK   3   CORRELATION COEFFICIENT FO-FC FREE :   0.939
REMARK   3
REMARK   3  RMS DEVIATIONS FROM IDEAL VALUES        COUNT    RMS    WEIGHT
REMARK   3   BOND LENGTHS REFINED ATOMS        (A):  2018 ; 0.007 ; 0.013
REMARK   3   BOND LENGTHS OTHERS               (A):  1679 ; 0.001 ; 0.015
REMARK   3   BOND ANGLES REFINED ATOMS   (DEGREES):  2485 ; 1.465 ; 1.639
REMARK   3   BOND ANGLES OTHERS          (DEGREES):  3887 ; 1.173 ; 1.586
REMARK   3   TORSION ANGLES, PERIOD 1    (DEGREES):   247 ; 7.578 ; 5.000
REMARK   3   TORSION ANGLES, PERIOD 2    (DEGREES):    77 ;31.994 ;22.208
REMARK   3   TORSION ANGLES, PERIOD 3    (DEGREES):   283 ;16.585 ;15.000
REMARK   3   TORSION ANGLES, PERIOD 4    (DEGREES):    10 ;17.392 ;15.000
REMARK   3   CHIRAL-CENTER RESTRAINTS       (A**3):   225 ; 0.053 ; 0.200
REMARK   3   GENERAL PLANES REFINED ATOMS      (A):  2155 ; 0.006 ; 0.020
REMARK   3   GENERAL PLANES OTHERS             (A):   415 ; 0.001 ; 0.020
REMARK   3
REMARK   3  ISOTROPIC THERMAL FACTOR RESTRAINTS.     COUNT   RMS    WEIGHT
REMARK   3   MAIN-CHAIN BOND REFINED ATOMS  (A**2):  1044 ; 4.418 ; 6.415
REMARK   3   MAIN-CHAIN BOND OTHER ATOMS    (A**2):   984 ; 4.538 ; 6.333
REMARK   3   MAIN-CHAIN ANGLE REFINED ATOMS (A**2):  1185 ; 6.739 ; 9.455
REMARK   3   MAIN-CHAIN ANGLE OTHER ATOMS (A**2)  :  1186 ; 6.743 ; 9.459
REMARK   3   SIDE-CHAIN BOND REFINED ATOMS  (A**2):   974 ; 5.056 ; 6.827
REMARK   3   SIDE-CHAIN BOND OTHER ATOMS  (A**2)  :   970 ; 5.066 ; 6.828
REMARK   3   SIDE-CHAIN ANGLE OTHER ATOMS (A**2)  :  1301 ; 7.965 ; 9.971
REMARK   3   LONG RANGE B REFINED ATOMS (A**2)    :  2108 ;11.547 ;73.821
REMARK   3   LONG RANGE B OTHER ATOMS (A**2)      :  2098 ;11.492 ;73.706
REMARK   3
REMARK   3  NCS RESTRAINTS STATISTICS
REMARK   3   NUMBER OF NCS GROUPS : NULL
REMARK   3
REMARK   3  TWIN DETAILS
REMARK   3   NUMBER OF TWIN DOMAINS  : NULL
REMARK   3
REMARK   3
REMARK   3  TLS DETAILS
REMARK   3   NUMBER OF TLS GROUPS  : NULL
REMARK   3
REMARK   3
REMARK   3  BULK SOLVENT MODELLING.
REMARK   3   METHOD USED :  MASK
REMARK   3   PARAMETERS FOR MASK CALCULATION
REMARK   3   VDW PROBE RADIUS   :   1.20
REMARK   3   ION PROBE RADIUS   :   0.80
REMARK   3   SHRINKAGE RADIUS   :   0.80
REMARK   3
REMARK   3  OTHER REFINEMENT REMARKS:
REMARK   3  HYDROGENS HAVE BEEN ADDED IN THE RIDING POSITIONS
REMARK   3  U VALUES      : REFINED INDIVIDUALLY
REMARK   3
CRYST1   42.640   42.640  217.080  90.00  90.00  90.00 P 43 2 2                 


$$$$
Zx1664a_ligand
  PyMOL3.0          3D                             0

 12 13  0  0  0  0  0  0  0  0999 V2000
   -8.4780    4.9170  -14.5140 Cl  0  0  0  0  0  0  0  0  0  0  0  0
   -4.8170    5.3960  -18.3530 C   0  0  0  0  0  0  0  0  0  0  0  0
   -3.6920    5.6050  -19.0700 N   0  0  0  0  0  0  0  0  0  0  0  0
   -4.8020    5.6040  -16.9400 C   0  0  0  0  0  0  0  0  0  0  0  0
   -5.9000    5.0000  -19.0150 N   0  0  0  0  0  0  0  0  0  0  0  0
   -5.9330    5.3930  -16.2320 C   0  0  0  0  0  0  0  0  0  0  0  0
   -7.1100    4.9670  -16.8920 C   0  0  0  0  0  0  0  0  0  0  0  0
   -8.3460    4.7070  -16.2320 C   0  0  0  0  0  0  0  0  0  0  0  0
   -9.4470    4.2900  -16.9190 C   0  0  0  0  0  0  0  0  0  0  0  0
   -9.3780    4.1100  -18.3120 C   0  0  0  0  0  0  0  0  0  0  0  0
   -8.2150    4.3440  -18.9850 C   0  0  0  0  0  0  0  0  0  0  0  0
   -7.0570    4.7770  -18.3000 C   0  0  0  0  0  0  0  0  0  0  0  0
  2  4  4  0  0  0  0
  2  5  4  0  0  0  0
  2  3  1  0  0  0  0
  4  6  4  0  0  0  0
  6  7  4  0  0  0  0
  7  8  4  0  0  0  0
  7 12  4  0  0  0  0
  1  8  1  0  0  0  0
  8  9  4  0  0  0  0
  9 10  4  0  0  0  0
 10 11  4  0  0  0  0
 11 12  4  0  0  0  0
  5 12  4  0  0  0  0
M  END
>  <pdb_header>
COMPND    XX01ZVNS2B-x1664_B_301_XX01ZVNS2B-x1291+B+301+1


$$$$
Zx1667a
  PyMOL3.0          3D                             0

 18 19  0  0  0  0  0  0  0  0999 V2000
   -5.6170    5.5860  -18.5910 C   0  0  0  0  0  0  0  0  0  0  0  0
   -8.6850    4.3280  -13.3750 N   0  0  0  0  0  0  0  0  0  0  0  0
   -6.8080    5.5390  -13.6920 O   0  0  0  0  0  0  0  0  0  0  0  0
   -6.8190    5.1460  -17.7960 C   0  0  0  0  0  0  0  0  0  0  0  0
   -8.4960    2.2300   -9.0080 N   0  0  0  0  0  0  0  0  0  0  0  0
   -7.9550    4.6580  -18.4190 C   0  0  0  0  0  0  0  0  0  0  0  0
   -9.0550    4.2460  -17.6850 C   0  0  0  0  0  0  0  0  0  0  0  0
   -9.0270    4.3070  -16.3030 C   0  0  0  0  0  0  0  0  0  0  0  0
   -7.8950    4.7860  -15.6470 C   0  0  0  0  0  0  0  0  0  0  0  0
   -6.8030    5.2000  -16.4080 C   0  0  0  0  0  0  0  0  0  0  0  0
   -7.7490    4.9100  -14.1600 C   0  0  0  0  0  0  0  0  0  0  0  0
   -8.7380    4.4300  -11.9460 C   0  0  0  0  0  0  0  0  0  0  0  0
   -8.5980    3.2780  -11.1740 C   0  0  0  0  0  0  0  0  0  0  0  0
   -8.6240    3.3650   -9.7860 C   0  0  0  0  0  0  0  0  0  0  0  0
   -8.7900    4.6130   -9.1840 C   0  0  0  0  0  0  0  0  0  0  0  0
   -8.9210    5.7540   -9.9520 C   0  0  0  0  0  0  0  0  0  0  0  0
   -8.8980    5.6920  -11.3480 C   0  0  0  0  0  0  0  0  0  0  0  0
   -9.0430    6.9500  -12.1530 C   0  0  0  0  0  0  0  0  0  0  0  0
  1  4  1  0  0  0  0
  4  6  4  0  0  0  0
  4 10  4  0  0  0  0
  6  7  4  0  0  0  0
  7  8  4  0  0  0  0
  8  9  4  0  0  0  0
  9 10  4  0  0  0  0
  9 11  1  0  0  0  0
  2 11  1  0  0  0  0
  3 11  2  0  0  0  0
  2 12  1  0  0  0  0
 12 13  4  0  0  0  0
 13 14  4  0  0  0  0
  5 14  1  0  0  0  0
 14 15  4  0  0  0  0
 15 16  4  0  0  0  0
 16 17  4  0  0  0  0
 12 17  4  0  0  0  0
 17 18  1  0  0  0  0
M  END
>  <pdb_header>
HEADER    ----                                    06-DEC-23   XXXX              
TITLE     ---                                                                   
REMARK   3
REMARK   3 REFINEMENT.
REMARK   3   PROGRAM     : REFMAC 5.8.0267   
REMARK   3   AUTHORS     : MURSHUDOV,SKUBAK,LEBEDEV,PANNU,
REMARK   3                 STEINER,NICHOLLS,WINN,LONG,VAGIN
REMARK   3
REMARK   3    REFINEMENT TARGET : MAXIMUM LIKELIHOOD
REMARK   3
REMARK   3  DATA USED IN REFINEMENT.
REMARK   3   RESOLUTION RANGE HIGH (ANGSTROMS) :   1.81
REMARK   3   RESOLUTION RANGE LOW  (ANGSTROMS) :  54.09
REMARK   3   DATA CUTOFF            (SIGMA(F)) : NONE
REMARK   3   COMPLETENESS FOR RANGE        (%) :  91.45
REMARK   3   NUMBER OF REFLECTIONS             :   16349
REMARK   3
REMARK   3  FIT TO DATA USED IN REFINEMENT.
REMARK   3   CROSS-VALIDATION METHOD          : THROUGHOUT
REMARK   3   FREE R VALUE TEST SET SELECTION  : RANDOM
REMARK   3   R VALUE     (WORKING + TEST SET) : 0.27563
REMARK   3   R VALUE            (WORKING SET) :  0.27369
REMARK   3   FREE R VALUE                     :  0.31260
REMARK   3   FREE R VALUE TEST SET SIZE   (%) :  4.9
REMARK   3   FREE R VALUE TEST SET COUNT      :   834
REMARK   3
REMARK   3  FIT IN THE HIGHEST RESOLUTION BIN.
REMARK   3   TOTAL NUMBER OF BINS USED           :      20
REMARK   3   BIN RESOLUTION RANGE HIGH           :    1.812
REMARK   3   BIN RESOLUTION RANGE LOW            :    1.859
REMARK   3   REFLECTION IN BIN     (WORKING SET) :      138
REMARK   3   BIN COMPLETENESS (WORKING+TEST) (%) :    10.87
REMARK   3   BIN R VALUE           (WORKING SET) :    0.633
REMARK   3   BIN FREE R VALUE SET COUNT          :        7
REMARK   3   BIN FREE R VALUE                    :    0.523
REMARK   3
REMARK   3  NUMBER OF NON-HYDROGEN ATOMS USED IN REFINEMENT.
REMARK   3   ALL ATOMS                :     2589
REMARK   3
REMARK   3  B VALUES.
REMARK   3   FROM WILSON PLOT           (A**2) : NULL
REMARK   3   MEAN B VALUE      (OVERALL, A**2) :  51.418
REMARK   3   OVERALL ANISOTROPIC B VALUE.
REMARK   3    B11 (A**2) :    -0.56
REMARK   3    B22 (A**2) :    -0.56
REMARK   3    B33 (A**2) :     1.11
REMARK   3    B12 (A**2) :    -0.00
REMARK   3    B13 (A**2) :     0.00
REMARK   3    B23 (A**2) :     0.00
REMARK   3
REMARK   3  ESTIMATED OVERALL COORDINATE ERROR.
REMARK   3   ESU BASED ON R VALUE                            (A):   0.341
REMARK   3   ESU BASED ON FREE R VALUE                       (A):   0.236
REMARK   3   ESU BASED ON MAXIMUM LIKELIHOOD                 (A):   0.458
REMARK   3   ESU FOR B VALUES BASED ON MAXIMUM LIKELIHOOD (A**2):  38.780
REMARK   3
REMARK   3 CORRELATION COEFFICIENTS.
REMARK   3   CORRELATION COEFFICIENT FO-FC      :   0.948
REMARK   3   CORRELATION COEFFICIENT FO-FC FREE :   0.931
REMARK   3
REMARK   3  RMS DEVIATIONS FROM IDEAL VALUES        COUNT    RMS    WEIGHT
REMARK   3   BOND LENGTHS REFINED ATOMS        (A):  3237 ; 0.014 ; 0.014
REMARK   3   BOND LENGTHS OTHERS               (A):  2262 ; 0.005 ; 0.015
REMARK   3   BOND ANGLES REFINED ATOMS   (DEGREES):  3524 ; 1.617 ; 1.633
REMARK   3   BOND ANGLES OTHERS          (DEGREES):  5239 ; 1.253 ; 1.589
REMARK   3   TORSION ANGLES, PERIOD 1    (DEGREES):   355 ; 7.808 ; 5.000
REMARK   3   TORSION ANGLES, PERIOD 2    (DEGREES):   113 ;31.827 ;22.301
REMARK   3   TORSION ANGLES, PERIOD 3    (DEGREES):   373 ;17.995 ;15.000
REMARK   3   TORSION ANGLES, PERIOD 4    (DEGREES):    13 ;19.230 ;15.000
REMARK   3   CHIRAL-CENTER RESTRAINTS       (A**3):   294 ; 0.067 ; 0.200
REMARK   3   GENERAL PLANES REFINED ATOMS      (A):  3133 ; 0.010 ; 0.020
REMARK   3   GENERAL PLANES OTHERS             (A):   614 ; 0.005 ; 0.020
REMARK   3
REMARK   3  ISOTROPIC THERMAL FACTOR RESTRAINTS.     COUNT   RMS    WEIGHT
REMARK   3   MAIN-CHAIN BOND REFINED ATOMS  (A**2):  1633 ; 1.037 ; 1.965
REMARK   3   MAIN-CHAIN BOND OTHER ATOMS    (A**2):  1576 ; 1.054 ; 1.800
REMARK   3   MAIN-CHAIN ANGLE REFINED ATOMS (A**2):  1677 ; 2.076 ; 2.763
REMARK   3   MAIN-CHAIN ANGLE OTHER ATOMS (A**2)  :  1678 ; 2.076 ; 2.766
REMARK   3   SIDE-CHAIN BOND REFINED ATOMS  (A**2):  1604 ; 1.009 ; 2.138
REMARK   3   SIDE-CHAIN BOND OTHER ATOMS  (A**2)  :  1566 ; 1.018 ; 2.050
REMARK   3   SIDE-CHAIN ANGLE OTHER ATOMS (A**2)  :  1812 ; 1.883 ; 3.008
REMARK   3   LONG RANGE B REFINED ATOMS (A**2)    :  2978 ;11.664 ;23.055
REMARK   3   LONG RANGE B OTHER ATOMS (A**2)      :  2940 ;11.381 ;22.054
REMARK   3
REMARK   3  NCS RESTRAINTS STATISTICS
REMARK   3   NUMBER OF NCS GROUPS : NULL
REMARK   3
REMARK   3  TWIN DETAILS
REMARK   3   NUMBER OF TWIN DOMAINS  : NULL
REMARK   3
REMARK   3
REMARK   3  TLS DETAILS
REMARK   3   NUMBER OF TLS GROUPS  :    2
REMARK   3   ATOM RECORD CONTAINS SUM OF TLS AND RESIDUAL B FACTORS
REMARK   3
REMARK   3   TLS GROUP :     1
REMARK   3    NUMBER OF COMPONENTS GROUP :    1
REMARK   3    COMPONENTS        C SSSEQI   TO  C SSSEQI
REMARK   3    RESIDUE RANGE :   A    50        A    88
REMARK   3    ORIGIN FOR THE GROUP (A): -13.2903  -1.9474 -19.1622
REMARK   3    T TENSOR
REMARK   3      T11:   0.3962 T22:   0.4376
REMARK   3      T33:   0.1073 T12:   0.1008
REMARK   3      T13:   0.0798 T23:   0.1005
REMARK   3    L TENSOR
REMARK   3      L11:   2.6402 L22:   4.0615
REMARK   3      L33:   1.6843 L12:  -0.9499
REMARK   3      L13:   0.3743 L23:   0.6052
REMARK   3    S TENSOR
REMARK   3      S11:   0.2598 S12:   0.3286 S13:   0.5100
REMARK   3      S21:  -0.2288 S22:  -0.3494 S23:  -0.3203
REMARK   3      S31:   0.1389 S32:   0.1950 S33:   0.0896
REMARK   3
REMARK   3   TLS GROUP :     2
REMARK   3    NUMBER OF COMPONENTS GROUP :    1
REMARK   3    COMPONENTS        C SSSEQI   TO  C SSSEQI
REMARK   3    RESIDUE RANGE :   B    16        B   307
REMARK   3    ORIGIN FOR THE GROUP (A): -18.0858   0.5074 -16.0861
REMARK   3    T TENSOR
REMARK   3      T11:   0.5528 T22:   0.5407
REMARK   3      T33:   0.0423 T12:   0.1257
REMARK   3      T13:   0.0270 T23:   0.0075
REMARK   3    L TENSOR
REMARK   3      L11:   0.7079 L22:   0.1378
REMARK   3      L33:   1.1305 L12:  -0.2257
REMARK   3      L13:   0.0350 L23:   0.2366
REMARK   3    S TENSOR
REMARK   3      S11:   0.1963 S12:   0.1401 S13:   0.0672
REMARK   3      S21:  -0.0649 S22:  -0.0881 S23:  -0.0314
REMARK   3      S31:   0.1690 S32:   0.1028 S33:  -0.1082
REMARK   3
REMARK   3
REMARK   3  BULK SOLVENT MODELLING.
REMARK   3   METHOD USED :  MASK
REMARK   3   PARAMETERS FOR MASK CALCULATION
REMARK   3   VDW PROBE RADIUS   :   1.20
REMARK   3   ION PROBE RADIUS   :   0.80
REMARK   3   SHRINKAGE RADIUS   :   0.80
REMARK   3
REMARK   3  OTHER REFINEMENT REMARKS:
REMARK   3  HYDROGENS HAVE BEEN ADDED IN THE RIDING POSITIONS
REMARK   3  U VALUES      : WITH TLS ADDED
REMARK   3
CRYST1   42.081   42.081  216.356  90.00  90.00  90.00 P 43 2 2                 


$$$$
Zx1667a_ligand
  PyMOL3.0          3D                             0

 18 19  0  0  0  0  0  0  0  0999 V2000
   -5.6170    5.5860  -18.5910 C   0  0  0  0  0  0  0  0  0  0  0  0
   -8.6850    4.3280  -13.3750 N   0  0  0  0  0  0  0  0  0  0  0  0
   -6.8080    5.5390  -13.6920 O   0  0  0  0  0  0  0  0  0  0  0  0
   -6.8190    5.1460  -17.7960 C   0  0  0  0  0  0  0  0  0  0  0  0
   -8.4960    2.2300   -9.0080 N   0  0  0  0  0  0  0  0  0  0  0  0
   -7.9550    4.6580  -18.4190 C   0  0  0  0  0  0  0  0  0  0  0  0
   -9.0550    4.2460  -17.6850 C   0  0  0  0  0  0  0  0  0  0  0  0
   -9.0270    4.3070  -16.3030 C   0  0  0  0  0  0  0  0  0  0  0  0
   -7.8950    4.7860  -15.6470 C   0  0  0  0  0  0  0  0  0  0  0  0
   -6.8030    5.2000  -16.4080 C   0  0  0  0  0  0  0  0  0  0  0  0
   -7.7490    4.9100  -14.1600 C   0  0  0  0  0  0  0  0  0  0  0  0
   -8.7380    4.4300  -11.9460 C   0  0  0  0  0  0  0  0  0  0  0  0
   -8.5980    3.2780  -11.1740 C   0  0  0  0  0  0  0  0  0  0  0  0
   -8.6240    3.3650   -9.7860 C   0  0  0  0  0  0  0  0  0  0  0  0
   -8.7900    4.6130   -9.1840 C   0  0  0  0  0  0  0  0  0  0  0  0
   -8.9210    5.7540   -9.9520 C   0  0  0  0  0  0  0  0  0  0  0  0
   -8.8980    5.6920  -11.3480 C   0  0  0  0  0  0  0  0  0  0  0  0
   -9.0430    6.9500  -12.1530 C   0  0  0  0  0  0  0  0  0  0  0  0
  1  4  1  0  0  0  0
  2 12  1  0  0  0  0
  4  6  4  0  0  0  0
  4 10  4  0  0  0  0
  6  7  4  0  0  0  0
  7  8  4  0  0  0  0
  8  9  4  0  0  0  0
  9 10  4  0  0  0  0
  9 11  1  0  0  0  0
  2 11  1  0  0  0  0
  3 11  2  0  0  0  0
 12 13  4  0  0  0  0
 12 17  4  0  0  0  0
 13 14  4  0  0  0  0
  5 14  1  0  0  0  0
 14 15  4  0  0  0  0
 15 16  4  0  0  0  0
 16 17  4  0  0  0  0
 17 18  1  0  0  0  0
M  END
>  <pdb_header>
COMPND    XX01ZVNS2B-x1667_B_301_XX01ZVNS2B-x1291+B+301+1


$$$$
Zx1674a
  PyMOL3.0          3D                             0

 14 15  0  0  0  0  0  0  0  0999 V2000
   -6.6440    5.1030  -14.2360 Cl  0  0  0  0  0  0  0  0  0  0  0  0
   -9.6600    4.5560  -14.6910 Cl  0  0  0  0  0  0  0  0  0  0  0  0
   -2.8060    5.7110  -17.4980 C   0  0  0  0  0  0  0  0  0  0  0  0
   -5.0640    5.3230  -16.7470 N   0  0  0  0  0  0  0  0  0  0  0  0
   -4.2520    5.4410  -17.7860 C   0  0  0  0  0  0  0  0  0  0  0  0
   -6.5040    4.9980  -20.6630 N   0  0  0  0  0  0  0  0  0  0  0  0
   -4.7030    5.3320  -19.1160 C   0  0  0  0  0  0  0  0  0  0  0  0
   -6.0350    5.0980  -19.3730 C   0  0  0  0  0  0  0  0  0  0  0  0
   -6.9350    4.9640  -18.2730 C   0  0  0  0  0  0  0  0  0  0  0  0
   -8.3090    4.6920  -18.4220 C   0  0  0  0  0  0  0  0  0  0  0  0
   -9.1190    4.5640  -17.3300 C   0  0  0  0  0  0  0  0  0  0  0  0
   -8.5980    4.7040  -16.0540 C   0  0  0  0  0  0  0  0  0  0  0  0
   -7.2600    4.9540  -15.8530 C   0  0  0  0  0  0  0  0  0  0  0  0
   -6.3970    5.0910  -16.9700 C   0  0  0  0  0  0  0  0  0  0  0  0
  3  5  1  0  0  0  0
  4  5  4  0  0  0  0
  5  7  4  0  0  0  0
  7  8  4  0  0  0  0
  6  8  1  0  0  0  0
  8  9  4  0  0  0  0
  9 10  4  0  0  0  0
  9 14  4  0  0  0  0
 10 11  4  0  0  0  0
 11 12  4  0  0  0  0
  2 12  1  0  0  0  0
 12 13  4  0  0  0  0
  1 13  1  0  0  0  0
 13 14  4  0  0  0  0
  4 14  4  0  0  0  0
M  END
>  <pdb_header>
HEADER    ----                                    09-JAN-24                     
TITLE     ---                                                                   
EXPDTA    X-RAY DIFFRACTION                                                     
REMARK --------------------- added by autoBUSTER ---------------------------------START
REMARK run at   = Fri Jan 19 13:04:46 GMT 2024
REMARK     in   = /dls/labxchem/data/lb32627/lb32627-65/processing/analysis/model_building/XX01ZVNS2B-x1674
REMARK     user = xau79897
REMARK     cmd  = \
REMARK            /dls_sw/apps/GPhL/BUSTER/20230726/autoBUSTER/bin/linux64/refine \
REMARK            -p \
REMARK            /dls/labxchem/data/lb32627/lb32627-65/processing/analysis/model_building/XX01ZVNS2B-x1674/cootOut/Refi
REMARK            -m \
REMARK            /dls/labxchem/data/lb32627/lb32627-65/processing/analysis/model_building/XX01ZVNS2B-x1674/XX01ZVNS2B-x
REMARK            -l \
REMARK            /dls/labxchem/data/lb32627/lb32627-65/processing/analysis/model_building/XX01ZVNS2B-x1674/MFP-0011177-
REMARK            -autoncs -M TLSbasic -WAT -B user -Gelly gelly.dat \
REMARK            StopOnGellySanityCheckError=no -d Refine_8
REMARK Files used:
REMARK   PDB              = Refine_8/pdbchk.pdb
REMARK   MTZ              = /dls/labxchem/data/lb32627/lb32627-65/processing/analysis/model_building/XX01ZVNS2B-x1674/XX
REMARK   Gelly commands       = /dls/labxchem/data/lb32627/lb32627-65/processing/analysis/model_building/XX01ZVNS2B-x167
REMARK output written to subdirectory = Refine_8
REMARK best refinement for F,SIGF with R/Rfree 0.2156/0.2815
REMARK header records are copied from input PDB file (apart from REMARK 3!)
REMARK --------------------- added by autoBUSTER -----------------------------------END
REMARK   2                                                            
REMARK   2 RESOLUTION.    2.01 ANGSTROMS.
REMARK   3
REMARK   3 REFINEMENT.
REMARK   3   PROGRAM     : BUSTER 2.10.4 (26-JUL-2023)
REMARK   3   AUTHORS     : BRICOGNE,BLANC,BRANDL,FLENSBURG,KELLER,
REMARK   3               : PACIOREK,ROVERSI,SHARFF,SMART,VONRHEIN,WOMACK;
REMARK   3               : MATTHEWS,TEN EYCK,TRONRUD
REMARK   3
REMARK   3  DATA USED IN REFINEMENT.
REMARK   3   RESOLUTION RANGE HIGH (ANGSTROMS) : 2.013
REMARK   3   RESOLUTION RANGE LOW  (ANGSTROMS) : 54.13
REMARK   3   DATA CUTOFF            (SIGMA(F)) : 0.000
REMARK   3   COMPLETENESS FOR RANGE        (%) : 55.0
REMARK   3   NUMBER OF REFLECTIONS             : 7765
REMARK   3
REMARK   3  FIT TO DATA USED IN REFINEMENT.
REMARK   3   CROSS-VALIDATION METHOD          : THROUGHOUT
REMARK   3   FREE R VALUE TEST SET SELECTION  : RANDOM
REMARK   3   R VALUE     (WORKING + TEST SET) : 0.2188
REMARK   3   R VALUE            (WORKING SET) : 0.2156
REMARK   3   FREE R VALUE                     : 0.2815
REMARK   3   FREE R VALUE TEST SET SIZE   (%) : 4.800
REMARK   3   FREE R VALUE TEST SET COUNT      : 373
REMARK   3   ESTIMATED ERROR OF FREE R VALUE  : NULL
REMARK   3
REMARK   3  FIT IN THE HIGHEST RESOLUTION BIN.
REMARK   3   TOTAL NUMBER OF BINS USED           : 19
REMARK   3   BIN RESOLUTION RANGE HIGH       (A) : 2.01
REMARK   3   BIN RESOLUTION RANGE LOW        (A) : 2.23
REMARK   3   BIN COMPLETENESS (WORKING+TEST) (%) : 11.79
REMARK   3   REFLECTIONS IN BIN   (WORKING+TEST) : 432
REMARK   3   BIN R VALUE          (WORKING+TEST) : 0.2831
REMARK   3   REFLECTIONS IN BIN    (WORKING SET) : 411
REMARK   3   BIN R VALUE           (WORKING SET) : 0.2775
REMARK   3   BIN FREE R VALUE                    : 0.3850
REMARK   3   BIN FREE R VALUE TEST SET SIZE  (%) : 4.86
REMARK   3   BIN FREE R VALUE TEST SET COUNT     : 21
REMARK   3   ESTIMATED ERROR OF BIN FREE R VALUE : NULL
REMARK   3
REMARK   3  NUMBER OF NON-HYDROGEN ATOMS USED IN REFINEMENT.
REMARK   3   PROTEIN ATOMS            : 1476
REMARK   3   NUCLEIC ACID ATOMS       : 0
REMARK   3   HETEROGEN ATOMS          : 36
REMARK   3   SOLVENT ATOMS            : 81
REMARK   3
REMARK   3  B VALUES.
REMARK   3   FROM WILSON PLOT           (A**2) : 32.26
REMARK   3   MEAN B VALUE      (OVERALL, A**2) : 45.57
REMARK   3   OVERALL ANISOTROPIC B VALUE.
REMARK   3    B11 (A**2) : 3.51560
REMARK   3    B22 (A**2) : 3.51560
REMARK   3    B33 (A**2) : -7.03130
REMARK   3    B12 (A**2) : 0.00000
REMARK   3    B13 (A**2) : 0.00000
REMARK   3    B23 (A**2) : 0.00000
REMARK   3
REMARK   3  ESTIMATED COORDINATE ERROR.
REMARK   3   ESD FROM LUZZATI PLOT                    (A) : 0.36
REMARK   3   DPI (BLOW EQ-9) BASED ON FREE R VALUE    (A) : 0.347
REMARK   3   DPI (CRUICKSHANK) BASED ON R VALUE       (A) : 0.987
REMARK   3   DPI (CRUICKSHANK) BASED ON FREE R VALUE  (A) : 0.333
REMARK   3
REMARK   3   REFERENCES: BLOW, D. (2002) ACTA CRYST D58, 792-797
REMARK   3               CRUICKSHANK, D.W.J. (1999) ACTA CRYST D55, 583-601
REMARK   3
REMARK   3  CORRELATION COEFFICIENTS.
REMARK   3   CORRELATION COEFFICIENT FO-FC      : 0.933
REMARK   3   CORRELATION COEFFICIENT FO-FC FREE : 0.896
REMARK   3
REMARK   3  X-RAY WEIGHT : 7.21
REMARK   3
REMARK   3  GEOMETRY FUNCTION.                                                  
REMARK   3   RESTRAINT LIBRARIES.                                               
REMARK   3    NUMBER OF LIBRARIES USED :  10                                    
REMARK   3    LIBRARY  1 : protgeo_eh99.dat (V1.6.4.20) 20220523  STANDARD      
REMARK   3                 AMINO ACID DICTIONARY. BONDS AND ANGLES FROM         
REMARK   3                 ENGH AND HUBER EH99. OTHER VALUES BASED ON           
REMARK   3                 PREVIOUS TNT OR TAKEN FROM CCP4. INCLUDES            
REMARK   3                 HYDROGEN ATOMS.                                      
REMARK   3    LIBRARY  2 : exoticaa.dat (V1.3.4.16) 20220523  COLLECTION        
REMARK   3                 OF NON-STANDARD AMINO ACIDS, MAINLY EH91             
REMARK   3                 WITHOUT IDEAL DISTANCE INFO                          
REMARK   3    LIBRARY  3 : nuclgeo.dat (V1.13.4.9) 20221011                     
REMARK   3    LIBRARY  4 : bcorrel.dat (V1.15.10.2) 20190616                    
REMARK   3    LIBRARY  5 : contact.dat (V1.15.12.10) 20191121                   
REMARK   3    LIBRARY  6 : idealdist_contact.dat (V1.3.4.14) 20230724           
REMARK   3                 IDEAL-DISTANCE CONTACT TERM DATA AS USED IN          
REMARK   3                 PROLSQ. VALUES USED HERE ARE BASEd ON DATA           
REMARK   3                 HARVESTING OF PDB AS OF 20190109                     
REMARK   3    LIBRARY  7 : restraints for LIG from cif dictionary               
REMARK   3                 MFP-0011177-001-002.cif                              
REMARK   3    LIBRARY  8 : restraints for DMS (DIMETHYL SULFOXIDE) from         
REMARK   3                 cif dictionary DMS.cif; generated by grade2          
REMARK   3                 version 1.1.0a7 from                                 
REMARK   3                 PDB_chemical_components_definition_file              
REMARK   3                 ftp://ftp.ebi.ac.uk/pub/databases/msd/pdbechem_v     
REMARK   3                 2/D/DMS/DMS.cif using RDKit 2021.03.4                
REMARK   3                 ((DatabaseID PDB-DMS))                               
REMARK   3    LIBRARY  9 : restraints for SO4 (SULFATE ION) from cif            
REMARK   3                 dictionary SO4.cif; generated by grade2 version      
REMARK   3                 1.1.0a7 from                                         
REMARK   3                 PDB_chemical_components_definition_file              
REMARK   3                 ftp://ftp.ebi.ac.uk/pub/databases/msd/pdbechem_v     
REMARK   3                 2/S/SO4/SO4.cif using RDKit 2021.03.4                
REMARK   3                 ((DatabaseID PDB-SO4))                               
REMARK   3    LIBRARY 10 : assume.dat (V1.9.4.3) 20221011                       
REMARK   3                                                                      
REMARK   3   NUMBER OF GEOMETRIC FUNCTION TERMS DEFINED : 15                    
REMARK   3   TERM                          COUNT    WEIGHT   FUNCTION.          
REMARK   3    BOND LENGTHS              :   1781 ;   2.00 ;  HARMONIC           
REMARK   3    BOND ANGLES               :   2456 ;   2.00 ;  HARMONIC           
REMARK   3    TORSION ANGLES            :    607 ;   2.00 ;  SINUSOIDAL         
REMARK   3    TRIGONAL CARBON PLANES    :   NULL ;   NULL ;  NULL               
REMARK   3    GENERAL PLANES            :    312 ;   5.00 ;  HARMONIC           
REMARK   3    ISOTROPIC THERMAL FACTORS :   1766 ;  10.00 ;  HARMONIC           
REMARK   3    BAD NON-BONDED CONTACTS   :      6 ;   5.00 ;  SEMIHARMONIC       
REMARK   3    IMPROPER TORSIONS         :   NULL ;   NULL ;  NULL               
REMARK   3    PSEUDOROTATION ANGLES     :   NULL ;   NULL ;  NULL               
REMARK   3    CHIRAL IMPROPER TORSION   :    219 ;   5.00 ;  SEMIHARMONIC       
REMARK   3    SUM OF OCCUPANCIES        :   NULL ;   NULL ;  NULL               
REMARK   3    UTILITY DISTANCES         :   NULL ;   NULL ;  NULL               
REMARK   3    UTILITY ANGLES            :   NULL ;   NULL ;  NULL               
REMARK   3    UTILITY TORSION           :   NULL ;   NULL ;  NULL               
REMARK   3    IDEAL-DIST CONTACT TERM   :   1321 ;   4.00 ;  SEMIHARMONIC       
REMARK   3                                                                      
REMARK   3   RMS DEVIATIONS FROM IDEAL VALUES.                                  
REMARK   3   BOND LENGTHS                       (A) : 0.008                     
REMARK   3   BOND ANGLES                  (DEGREES) : 0.95                      
REMARK   3   PEPTIDE OMEGA TORSION ANGLES (DEGREES) : 2.84                      
REMARK   3   OTHER TORSION ANGLES         (DEGREES) : 16.04                     
REMARK   3                                                                      
REMARK   3   SIMILARITY.                                                        
REMARK   3    NCS.                                                              
REMARK   3     NCS METHOD: NONE                                                 
REMARK   3    TARGET RESTRAINTS.                                                
REMARK   3     TARGET REPRESENTATION : NONE                                     
REMARK   3     TARGET STRUCTURE : NULL                                          
REMARK   3                                                                      
REMARK   3  TLS DETAILS.                                                        
REMARK   3   NUMBER OF TLS GROUPS  :            2                               
REMARK   3                                                                      
REMARK   3   TLS GROUP :            1                                           
REMARK   3    SET : { A|50 - A|88 }                                             
REMARK   3    ORIGIN FOR THE GROUP (A):  -14.0978   -2.0265  -20.9643           
REMARK   3    T TENSOR                                                          
REMARK   3     T11:    0.0334 T22:   -0.0142                                    
REMARK   3     T33:   -0.3211 T12:    0.2131                                    
REMARK   3     T13:    0.1126 T23:    0.0973                                    
REMARK   3    L TENSOR                                                          
REMARK   3     L11:    5.0693 L22:    4.1713                                    
REMARK   3     L33:    4.8652 L12:   -1.5106                                    
REMARK   3     L13:    0.0777 L23:    0.4618                                    
REMARK   3    S TENSOR                                                          
REMARK   3     S11:    0.2587 S12:    0.6255 S13:    0.1385                     
REMARK   3     S21:   -0.5335 S22:   -0.2679 S23:   -0.2354                     
REMARK   3     S31:   -0.2658 S32:    0.3509 S33:    0.0093                     
REMARK   3                                                                      
REMARK   3   TLS GROUP :            2                                           
REMARK   3    SET : { B|16 - B|304 }                                            
REMARK   3    ORIGIN FOR THE GROUP (A):  -17.4059    0.7014  -15.8736           
REMARK   3    T TENSOR                                                          
REMARK   3     T11:    0.1818 T22:    0.1305                                    
REMARK   3     T33:   -0.1529 T12:    0.2501                                    
REMARK   3     T13:    0.0570 T23:    0.0550                                    
REMARK   3    L TENSOR                                                          
REMARK   3     L11:    1.7973 L22:    2.0195                                    
REMARK   3     L33:    2.2969 L12:   -0.6689                                    
REMARK   3     L13:    0.6821 L23:    0.0695                                    
REMARK   3    S TENSOR                                                          
REMARK   3     S11:    0.4462 S12:    0.2525 S13:    0.1458                     
REMARK   3     S21:   -0.2309 S22:   -0.3720 S23:    0.0027                     
REMARK   3     S31:   -0.0367 S32:    0.2534 S33:   -0.0742                     
REMARK   3                                                                      
REMARK   3  REFINEMENT NOTES.                                                   
REMARK   3   NUMBER OF REFINEMENT NOTES :   1                                   
REMARK   3   NOTE   1 :  IDEAL-DIST CONTACT TERM CONTACT SETUP. RESIDUE         
REMARK   3               TYPES WITHOUT CCP4 ATOM TYPE IN LIBRARY=. NUMBER       
REMARK   3               OF ATOMS WITH PROPER CCP4 ATOM TYPE=1810. NUMBER       
REMARK   3               WITH APPROX DEFAULT CCP4 ATOM TYPE=0. NUMBER           
REMARK   3               TREATED BY BAD NON-BONDED CONTACTS=2.                  
REMARK   3
REMARK   3  OTHER REFINEMENT REMARKS: NULL
REMARK   3
REMARK 290                                                            
REMARK 290 CRYSTALLOGRAPHIC SYMMETRY                                  
REMARK 290 SYMMETRY OPERATORS FOR SPACE GROUP: P 43 2 2               
REMARK 290                                                            
REMARK 290      SYMOP   SYMMETRY                                      
REMARK 290     NNNMMM   OPERATOR                                      
REMARK 290       1555   X,Y,Z                                         
REMARK 290       2555   -X,-Y,1/2+Z                                   
REMARK 290       3555   -Y,X,3/4+Z                                    
REMARK 290       4555   Y,-X,1/4+Z                                    
REMARK 290       5555   -X,Y,-Z                                       
REMARK 290       6555   X,-Y,1/2-Z                                    
REMARK 290       7555   Y,X,1/4-Z                                     
REMARK 290       8555   -Y,-X,3/4-Z                                   
REMARK 290                                                            
REMARK 290     WHERE NNN -> OPERATOR NUMBER                           
REMARK 290           MMM -> TRANSLATION VECTOR                        
REMARK 290                                                            
REMARK 290 CRYSTALLOGRAPHIC SYMMETRY TRANSFORMATIONS                  
REMARK 290 THE FOLLOWING TRANSFORMATIONS OPERATE ON THE ATOM/HETATM   
REMARK 290 RECORDS IN THIS ENTRY TO PRODUCE CRYSTALLOGRAPHICALLY      
REMARK 290 RELATED MOLECULES.                                         
REMARK 290   SMTRY1   1  1.000000  0.000000  0.000000        0.00000
REMARK 290   SMTRY2   1  0.000000  1.000000  0.000000        0.00000
REMARK 290   SMTRY3   1  0.000000  0.000000  1.000000        0.00000
REMARK 290   SMTRY1   2 -1.000000  0.000000  0.000000        0.00000
REMARK 290   SMTRY2   2  0.000000 -1.000000  0.000000        0.00000
REMARK 290   SMTRY3   2  0.000000  0.000000  1.000000      108.25850
REMARK 290   SMTRY1   3  0.000000 -1.000000  0.000000        0.00000
REMARK 290   SMTRY2   3  1.000000  0.000000  0.000000        0.00000
REMARK 290   SMTRY3   3  0.000000  0.000000  1.000000      162.38775
REMARK 290   SMTRY1   4  0.000000  1.000000  0.000000        0.00000
REMARK 290   SMTRY2   4 -1.000000  0.000000  0.000000        0.00000
REMARK 290   SMTRY3   4  0.000000  0.000000  1.000000       54.12925
REMARK 290   SMTRY1   5 -1.000000  0.000000  0.000000        0.00000
REMARK 290   SMTRY2   5  0.000000  1.000000  0.000000        0.00000
REMARK 290   SMTRY3   5  0.000000  0.000000 -1.000000        0.00000
REMARK 290   SMTRY1   6  1.000000  0.000000  0.000000        0.00000
REMARK 290   SMTRY2   6  0.000000 -1.000000  0.000000        0.00000
REMARK 290   SMTRY3   6  0.000000  0.000000 -1.000000      108.25850
REMARK 290   SMTRY1   7  0.000000  1.000000  0.000000        0.00000
REMARK 290   SMTRY2   7  1.000000  0.000000  0.000000        0.00000
REMARK 290   SMTRY3   7  0.000000  0.000000 -1.000000       54.12925
REMARK 290   SMTRY1   8  0.000000 -1.000000  0.000000        0.00000
REMARK 290   SMTRY2   8 -1.000000  0.000000  0.000000        0.00000
REMARK 290   SMTRY3   8  0.000000  0.000000 -1.000000      162.38775
REMARK 290                                                            
REMARK 290 REMARK: NULL                                               
CRYST1   42.477   42.477  216.517  90.00  90.00  90.00 P 43 2 2                 


$$$$
Zx1674a_ligand
  PyMOL3.0          3D                             0

 14 15  0  0  0  0  0  0  0  0999 V2000
   -6.6440    5.1030  -14.2360 Cl  0  0  0  0  0  0  0  0  0  0  0  0
   -9.6600    4.5560  -14.6910 Cl  0  0  0  0  0  0  0  0  0  0  0  0
   -2.8060    5.7110  -17.4980 C   0  0  0  0  0  0  0  0  0  0  0  0
   -5.0640    5.3230  -16.7470 N   0  0  0  0  0  0  0  0  0  0  0  0
   -4.2520    5.4410  -17.7860 C   0  0  0  0  0  0  0  0  0  0  0  0
   -6.5040    4.9980  -20.6630 N   0  0  0  0  0  0  0  0  0  0  0  0
   -4.7030    5.3320  -19.1160 C   0  0  0  0  0  0  0  0  0  0  0  0
   -6.0350    5.0980  -19.3730 C   0  0  0  0  0  0  0  0  0  0  0  0
   -6.9350    4.9640  -18.2730 C   0  0  0  0  0  0  0  0  0  0  0  0
   -8.3090    4.6920  -18.4220 C   0  0  0  0  0  0  0  0  0  0  0  0
   -9.1190    4.5640  -17.3300 C   0  0  0  0  0  0  0  0  0  0  0  0
   -8.5980    4.7040  -16.0540 C   0  0  0  0  0  0  0  0  0  0  0  0
   -7.2600    4.9540  -15.8530 C   0  0  0  0  0  0  0  0  0  0  0  0
   -6.3970    5.0910  -16.9700 C   0  0  0  0  0  0  0  0  0  0  0  0
  3  5  1  0  0  0  0
  4  5  4  0  0  0  0
  5  7  4  0  0  0  0
  7  8  4  0  0  0  0
  6  8  1  0  0  0  0
  8  9  4  0  0  0  0
  9 10  4  0  0  0  0
  9 14  4  0  0  0  0
 10 11  4  0  0  0  0
 11 12  4  0  0  0  0
  2 12  1  0  0  0  0
 12 13  4  0  0  0  0
  1 13  1  0  0  0  0
 13 14  4  0  0  0  0
  4 14  4  0  0  0  0
M  END
>  <pdb_header>
COMPND    XX01ZVNS2B-x1674_B_301_XX01ZVNS2B-x1291+B+301+1


$$$$
Zx1680a
  PyMOL3.0          3D                             0

 14 15  0  0  0  0  0  0  0  0999 V2000
   -6.1310    5.3890  -21.3420 C   0  0  0  0  0  0  0  0  0  0  0  0
   -7.4400    4.9970  -19.3540 N   0  0  0  0  0  0  0  0  0  0  0  0
   -6.2690    5.3690  -19.8530 C   0  0  0  0  0  0  0  0  0  0  0  0
   -4.2120    6.0610  -16.8930 N   0  0  0  0  0  0  0  0  0  0  0  0
   -5.1680    5.7280  -19.0570 C   0  0  0  0  0  0  0  0  0  0  0  0
   -5.2840    5.7120  -17.6950 C   0  0  0  0  0  0  0  0  0  0  0  0
   -6.5350    5.3210  -17.1250 C   0  0  0  0  0  0  0  0  0  0  0  0
   -6.7390    5.2730  -15.7390 C   0  0  0  0  0  0  0  0  0  0  0  0
   -7.9530    4.8930  -15.2630 C   0  0  0  0  0  0  0  0  0  0  0  0
   -9.0210    4.5400  -16.0880 C   0  0  0  0  0  0  0  0  0  0  0  0
   -8.8630    4.5680  -17.4290 C   0  0  0  0  0  0  0  0  0  0  0  0
   -7.6080    4.9680  -17.9940 C   0  0  0  0  0  0  0  0  0  0  0  0
  -10.2620    4.1130  -18.3550 Cl  0  0  0  0  0  0  0  0  0  0  0  0
   -8.1850    4.8450  -13.5560 Cl  0  0  0  0  0  0  0  0  0  0  0  0
  1  3  1  0  0  0  0
  2  3  4  0  0  0  0
  3  5  4  0  0  0  0
  5  6  4  0  0  0  0
  4  6  1  0  0  0  0
  6  7  4  0  0  0  0
  7  8  4  0  0  0  0
  8  9  4  0  0  0  0
  9 10  4  0  0  0  0
  9 14  1  0  0  0  0
 10 11  4  0  0  0  0
 11 13  1  0  0  0  0
  2 12  4  0  0  0  0
  7 12  4  0  0  0  0
 11 12  4  0  0  0  0
M  END
>  <pdb_header>
HEADER    ----                                    06-DEC-23   XXXX              
TITLE     ---                                                                   
REMARK   3
REMARK   3 REFINEMENT.
REMARK   3   PROGRAM     : REFMAC 5.8.0267   
REMARK   3   AUTHORS     : MURSHUDOV,SKUBAK,LEBEDEV,PANNU,
REMARK   3                 STEINER,NICHOLLS,WINN,LONG,VAGIN
REMARK   3
REMARK   3    REFINEMENT TARGET : MAXIMUM LIKELIHOOD
REMARK   3
REMARK   3  DATA USED IN REFINEMENT.
REMARK   3   RESOLUTION RANGE HIGH (ANGSTROMS) :   1.80
REMARK   3   RESOLUTION RANGE LOW  (ANGSTROMS) :  54.03
REMARK   3   DATA CUTOFF            (SIGMA(F)) : NONE
REMARK   3   COMPLETENESS FOR RANGE        (%) :  79.04
REMARK   3   NUMBER OF REFLECTIONS             :   14628
REMARK   3
REMARK   3  FIT TO DATA USED IN REFINEMENT.
REMARK   3   CROSS-VALIDATION METHOD          : THROUGHOUT
REMARK   3   FREE R VALUE TEST SET SELECTION  : RANDOM
REMARK   3   R VALUE     (WORKING + TEST SET) : 0.25624
REMARK   3   R VALUE            (WORKING SET) :  0.25352
REMARK   3   FREE R VALUE                     :  0.30797
REMARK   3   FREE R VALUE TEST SET SIZE   (%) :  4.8
REMARK   3   FREE R VALUE TEST SET COUNT      :   738
REMARK   3
REMARK   3  FIT IN THE HIGHEST RESOLUTION BIN.
REMARK   3   TOTAL NUMBER OF BINS USED           :      20
REMARK   3   BIN RESOLUTION RANGE HIGH           :    1.795
REMARK   3   BIN RESOLUTION RANGE LOW            :    1.842
REMARK   3   REFLECTION IN BIN     (WORKING SET) :       18
REMARK   3   BIN COMPLETENESS (WORKING+TEST) (%) :     1.34
REMARK   3   BIN R VALUE           (WORKING SET) :    0.387
REMARK   3   BIN FREE R VALUE SET COUNT          :        1
REMARK   3   BIN FREE R VALUE                    :    0.640
REMARK   3
REMARK   3  NUMBER OF NON-HYDROGEN ATOMS USED IN REFINEMENT.
REMARK   3   ALL ATOMS                :     2138
REMARK   3
REMARK   3  B VALUES.
REMARK   3   FROM WILSON PLOT           (A**2) : NULL
REMARK   3   MEAN B VALUE      (OVERALL, A**2) :  59.620
REMARK   3   OVERALL ANISOTROPIC B VALUE.
REMARK   3    B11 (A**2) :    -1.53
REMARK   3    B22 (A**2) :    -1.53
REMARK   3    B33 (A**2) :     3.06
REMARK   3    B12 (A**2) :     0.00
REMARK   3    B13 (A**2) :     0.00
REMARK   3    B23 (A**2) :    -0.00
REMARK   3
REMARK   3  ESTIMATED OVERALL COORDINATE ERROR.
REMARK   3   ESU BASED ON R VALUE                            (A):   0.297
REMARK   3   ESU BASED ON FREE R VALUE                       (A):   0.232
REMARK   3   ESU BASED ON MAXIMUM LIKELIHOOD                 (A):   0.328
REMARK   3   ESU FOR B VALUES BASED ON MAXIMUM LIKELIHOOD (A**2):  25.145
REMARK   3
REMARK   3 CORRELATION COEFFICIENTS.
REMARK   3   CORRELATION COEFFICIENT FO-FC      :   0.947
REMARK   3   CORRELATION COEFFICIENT FO-FC FREE :   0.919
REMARK   3
REMARK   3  RMS DEVIATIONS FROM IDEAL VALUES        COUNT    RMS    WEIGHT
REMARK   3   BOND LENGTHS REFINED ATOMS        (A):  2404 ; 0.009 ; 0.014
REMARK   3   BOND LENGTHS OTHERS               (A):  1915 ; 0.001 ; 0.015
REMARK   3   BOND ANGLES REFINED ATOMS   (DEGREES):  2787 ; 1.628 ; 1.634
REMARK   3   BOND ANGLES OTHERS          (DEGREES):  4410 ; 1.141 ; 1.588
REMARK   3   TORSION ANGLES, PERIOD 1    (DEGREES):   271 ; 7.714 ; 5.000
REMARK   3   TORSION ANGLES, PERIOD 2    (DEGREES):    89 ;33.076 ;23.258
REMARK   3   TORSION ANGLES, PERIOD 3    (DEGREES):   319 ;17.177 ;15.000
REMARK   3   TORSION ANGLES, PERIOD 4    (DEGREES):    10 ;19.241 ;15.000
REMARK   3   CHIRAL-CENTER RESTRAINTS       (A**3):   246 ; 0.068 ; 0.200
REMARK   3   GENERAL PLANES REFINED ATOMS      (A):  2372 ; 0.007 ; 0.020
REMARK   3   GENERAL PLANES OTHERS             (A):   438 ; 0.001 ; 0.020
REMARK   3
REMARK   3  ISOTROPIC THERMAL FACTOR RESTRAINTS.     COUNT   RMS    WEIGHT
REMARK   3   MAIN-CHAIN BOND REFINED ATOMS  (A**2):  1205 ; 0.989 ; 1.930
REMARK   3   MAIN-CHAIN BOND OTHER ATOMS    (A**2):  1144 ; 1.013 ; 1.630
REMARK   3   MAIN-CHAIN ANGLE REFINED ATOMS (A**2):  1305 ; 2.006 ; 2.371
REMARK   3   MAIN-CHAIN ANGLE OTHER ATOMS (A**2)  :  1306 ; 2.006 ; 2.375
REMARK   3   SIDE-CHAIN BOND REFINED ATOMS  (A**2):  1199 ; 1.047 ; 2.346
REMARK   3   SIDE-CHAIN BOND OTHER ATOMS  (A**2)  :  1199 ; 1.047 ; 2.335
REMARK   3   SIDE-CHAIN ANGLE OTHER ATOMS (A**2)  :  1483 ; 1.655 ; 2.970
REMARK   3   LONG RANGE B REFINED ATOMS (A**2)    :  2152 ;23.830 ;18.111
REMARK   3   LONG RANGE B OTHER ATOMS (A**2)      :  2132 ;23.886 ;17.382
REMARK   3
REMARK   3  NCS RESTRAINTS STATISTICS
REMARK   3   NUMBER OF NCS GROUPS : NULL
REMARK   3
REMARK   3  TWIN DETAILS
REMARK   3   NUMBER OF TWIN DOMAINS  : NULL
REMARK   3
REMARK   3
REMARK   3  TLS DETAILS
REMARK   3   NUMBER OF TLS GROUPS  :    2
REMARK   3   ATOM RECORD CONTAINS SUM OF TLS AND RESIDUAL B FACTORS
REMARK   3
REMARK   3   TLS GROUP :     1
REMARK   3    NUMBER OF COMPONENTS GROUP :    1
REMARK   3    COMPONENTS        C SSSEQI   TO  C SSSEQI
REMARK   3    RESIDUE RANGE :   A    50        A    88
REMARK   3    ORIGIN FOR THE GROUP (A): -13.3334  -2.1049 -19.3188
REMARK   3    T TENSOR
REMARK   3      T11:   0.6174 T22:   0.5735
REMARK   3      T33:   0.1113 T12:   0.1744
REMARK   3      T13:   0.0955 T23:   0.0831
REMARK   3    L TENSOR
REMARK   3      L11:   2.9607 L22:   3.0374
REMARK   3      L33:   0.6245 L12:  -0.3230
REMARK   3      L13:  -0.4582 L23:   0.5034
REMARK   3    S TENSOR
REMARK   3      S11:   0.3528 S12:   0.3087 S13:   0.4002
REMARK   3      S21:  -0.4308 S22:  -0.2986 S23:  -0.4266
REMARK   3      S31:  -0.0387 S32:   0.0870 S33:  -0.0542
REMARK   3
REMARK   3   TLS GROUP :     2
REMARK   3    NUMBER OF COMPONENTS GROUP :    1
REMARK   3    COMPONENTS        C SSSEQI   TO  C SSSEQI
REMARK   3    RESIDUE RANGE :   B    16        B   309
REMARK   3    ORIGIN FOR THE GROUP (A): -18.0710   0.4900 -15.9382
REMARK   3    T TENSOR
REMARK   3      T11:   0.6082 T22:   0.5923
REMARK   3      T33:   0.1455 T12:   0.1140
REMARK   3      T13:   0.0355 T23:   0.0374
REMARK   3    L TENSOR
REMARK   3      L11:   0.5461 L22:   1.5499
REMARK   3      L33:   1.3995 L12:  -0.4522
REMARK   3      L13:   0.6530 L23:   0.2889
REMARK   3    S TENSOR
REMARK   3      S11:   0.1706 S12:   0.1729 S13:   0.0697
REMARK   3      S21:  -0.2335 S22:  -0.1731 S23:  -0.0725
REMARK   3      S31:   0.1285 S32:   0.2086 S33:   0.0025
REMARK   3
REMARK   3
REMARK   3  BULK SOLVENT MODELLING.
REMARK   3   METHOD USED :  MASK
REMARK   3   PARAMETERS FOR MASK CALCULATION
REMARK   3   VDW PROBE RADIUS   :   1.20
REMARK   3   ION PROBE RADIUS   :   0.80
REMARK   3   SHRINKAGE RADIUS   :   0.80
REMARK   3
REMARK   3  OTHER REFINEMENT REMARKS:
REMARK   3  HYDROGENS HAVE BEEN ADDED IN THE RIDING POSITIONS
REMARK   3  U VALUES      : WITH TLS ADDED
REMARK   3
CRYST1   42.243   42.243  216.106  90.00  90.00  90.00 P 43 2 2                 


$$$$
Zx1680a_ligand
  PyMOL3.0          3D                             0

 14 15  0  0  0  0  0  0  0  0999 V2000
  -10.2620    4.1130  -18.3550 Cl  0  0  0  0  0  0  0  0  0  0  0  0
   -8.1850    4.8450  -13.5560 Cl  0  0  0  0  0  0  0  0  0  0  0  0
   -6.1310    5.3890  -21.3420 C   0  0  0  0  0  0  0  0  0  0  0  0
   -7.4400    4.9970  -19.3540 N   0  0  0  0  0  0  0  0  0  0  0  0
   -6.2690    5.3690  -19.8530 C   0  0  0  0  0  0  0  0  0  0  0  0
   -4.2120    6.0610  -16.8930 N   0  0  0  0  0  0  0  0  0  0  0  0
   -5.1680    5.7280  -19.0570 C   0  0  0  0  0  0  0  0  0  0  0  0
   -5.2840    5.7120  -17.6950 C   0  0  0  0  0  0  0  0  0  0  0  0
   -6.5350    5.3210  -17.1250 C   0  0  0  0  0  0  0  0  0  0  0  0
   -6.7390    5.2730  -15.7390 C   0  0  0  0  0  0  0  0  0  0  0  0
   -7.9530    4.8930  -15.2630 C   0  0  0  0  0  0  0  0  0  0  0  0
   -9.0210    4.5400  -16.0880 C   0  0  0  0  0  0  0  0  0  0  0  0
   -8.8630    4.5680  -17.4290 C   0  0  0  0  0  0  0  0  0  0  0  0
   -7.6080    4.9680  -17.9940 C   0  0  0  0  0  0  0  0  0  0  0  0
  3  5  1  0  0  0  0
  4  5  4  0  0  0  0
  5  7  4  0  0  0  0
  7  8  4  0  0  0  0
  6  8  1  0  0  0  0
  8  9  4  0  0  0  0
  9 10  4  0  0  0  0
  9 14  4  0  0  0  0
 10 11  4  0  0  0  0
  2 11  1  0  0  0  0
 11 12  4  0  0  0  0
 12 13  4  0  0  0  0
  1 13  1  0  0  0  0
 13 14  4  0  0  0  0
  4 14  4  0  0  0  0
M  END
>  <pdb_header>
COMPND    XX01ZVNS2B-x1680_B_301_XX01ZVNS2B-x1291+B+301+1


$$$$
Zx1682a
  PyMOL3.0          3D                             0

 16 17  0  0  0  0  0  0  0  0999 V2000
   -6.0260    4.9040  -18.9350 C   0  0  0  0  0  0  0  0  0  0  0  0
   -6.1860    4.9240  -20.3090 N   0  0  0  0  0  0  0  0  0  0  0  0
   -7.6550    4.3900  -14.4150 O   0  0  0  0  0  0  0  0  0  0  0  0
   -4.7750    5.1360  -18.3870 C   0  0  0  0  0  0  0  0  0  0  0  0
   -5.6270    4.8760  -16.1430 N   0  0  0  0  0  0  0  0  0  0  0  0
   -4.6460    5.1100  -16.9900 C   0  0  0  0  0  0  0  0  0  0  0  0
   -6.8780    4.6440  -16.6490 C   0  0  0  0  0  0  0  0  0  0  0  0
   -7.9630    4.3990  -15.7550 C   0  0  0  0  0  0  0  0  0  0  0  0
   -9.2140    4.1490  -16.2400 C   0  0  0  0  0  0  0  0  0  0  0  0
   -9.4550    4.1550  -17.6230 C   0  0  0  0  0  0  0  0  0  0  0  0
   -8.4450    4.3930  -18.5020 C   0  0  0  0  0  0  0  0  0  0  0  0
   -7.1300    4.6450  -18.0510 C   0  0  0  0  0  0  0  0  0  0  0  0
   -7.7860    5.6020  -13.6700 C   0  0  0  0  0  0  0  0  0  0  0  0
   -7.1290    6.6130  -14.2130 F   0  0  0  0  0  0  0  0  0  0  0  0
   -9.0500    5.9700  -13.5510 F   0  0  0  0  0  0  0  0  0  0  0  0
   -7.2950    5.4620  -12.4510 F   0  0  0  0  0  0  0  0  0  0  0  0
  1  2  1  0  0  0  0
  1  4  4  0  0  0  0
  1 12  4  0  0  0  0
  4  6  4  0  0  0  0
  5  6  4  0  0  0  0
  5  7  4  0  0  0  0
  7  8  4  0  0  0  0
  7 12  4  0  0  0  0
  3  8  1  0  0  0  0
  8  9  4  0  0  0  0
  9 10  4  0  0  0  0
 10 11  4  0  0  0  0
 11 12  4  0  0  0  0
  3 13  1  0  0  0  0
 13 14  1  0  0  0  0
 13 15  1  0  0  0  0
 13 16  1  0  0  0  0
M  END
>  <pdb_header>
HEADER    ----                                    06-DEC-23   XXXX              
TITLE     ---                                                                   
REMARK   3
REMARK   3 REFINEMENT.
REMARK   3   PROGRAM     : REFMAC 5.8.0267   
REMARK   3   AUTHORS     : MURSHUDOV,SKUBAK,LEBEDEV,PANNU,
REMARK   3                 STEINER,NICHOLLS,WINN,LONG,VAGIN
REMARK   3
REMARK   3    REFINEMENT TARGET : MAXIMUM LIKELIHOOD
REMARK   3
REMARK   3  DATA USED IN REFINEMENT.
REMARK   3   RESOLUTION RANGE HIGH (ANGSTROMS) :   1.65
REMARK   3   RESOLUTION RANGE LOW  (ANGSTROMS) :  54.06
REMARK   3   DATA CUTOFF            (SIGMA(F)) : NONE
REMARK   3   COMPLETENESS FOR RANGE        (%) :  69.42
REMARK   3   NUMBER OF REFLECTIONS             :   16468
REMARK   3
REMARK   3  FIT TO DATA USED IN REFINEMENT.
REMARK   3   CROSS-VALIDATION METHOD          : THROUGHOUT
REMARK   3   FREE R VALUE TEST SET SELECTION  : RANDOM
REMARK   3   R VALUE     (WORKING + TEST SET) : 0.26874
REMARK   3   R VALUE            (WORKING SET) :  0.26583
REMARK   3   FREE R VALUE                     :  0.32466
REMARK   3   FREE R VALUE TEST SET SIZE   (%) :  4.9
REMARK   3   FREE R VALUE TEST SET COUNT      :   845
REMARK   3
REMARK   3  FIT IN THE HIGHEST RESOLUTION BIN.
REMARK   3   TOTAL NUMBER OF BINS USED           :      20
REMARK   3   BIN RESOLUTION RANGE HIGH           :    1.652
REMARK   3   BIN RESOLUTION RANGE LOW            :    1.695
REMARK   3   REFLECTION IN BIN     (WORKING SET) :       23
REMARK   3   BIN COMPLETENESS (WORKING+TEST) (%) :     1.43
REMARK   3   BIN R VALUE           (WORKING SET) :    0.803
REMARK   3   BIN FREE R VALUE SET COUNT          :        3
REMARK   3   BIN FREE R VALUE                    :    0.745
REMARK   3
REMARK   3  NUMBER OF NON-HYDROGEN ATOMS USED IN REFINEMENT.
REMARK   3   ALL ATOMS                :     2309
REMARK   3
REMARK   3  B VALUES.
REMARK   3   FROM WILSON PLOT           (A**2) : NULL
REMARK   3   MEAN B VALUE      (OVERALL, A**2) :  58.855
REMARK   3   OVERALL ANISOTROPIC B VALUE.
REMARK   3    B11 (A**2) :    -0.19
REMARK   3    B22 (A**2) :    -0.19
REMARK   3    B33 (A**2) :     0.38
REMARK   3    B12 (A**2) :     0.00
REMARK   3    B13 (A**2) :     0.00
REMARK   3    B23 (A**2) :     0.00
REMARK   3
REMARK   3  ESTIMATED OVERALL COORDINATE ERROR.
REMARK   3   ESU BASED ON R VALUE                            (A):   0.285
REMARK   3   ESU BASED ON FREE R VALUE                       (A):   0.231
REMARK   3   ESU BASED ON MAXIMUM LIKELIHOOD                 (A):   0.408
REMARK   3   ESU FOR B VALUES BASED ON MAXIMUM LIKELIHOOD (A**2):  36.526
REMARK   3
REMARK   3 CORRELATION COEFFICIENTS.
REMARK   3   CORRELATION COEFFICIENT FO-FC      :   0.955
REMARK   3   CORRELATION COEFFICIENT FO-FC FREE :   0.922
REMARK   3
REMARK   3  RMS DEVIATIONS FROM IDEAL VALUES        COUNT    RMS    WEIGHT
REMARK   3   BOND LENGTHS REFINED ATOMS        (A):  2695 ; 0.013 ; 0.014
REMARK   3   BOND LENGTHS OTHERS               (A):  1992 ; 0.006 ; 0.015
REMARK   3   BOND ANGLES REFINED ATOMS   (DEGREES):  3057 ; 1.751 ; 1.637
REMARK   3   BOND ANGLES OTHERS          (DEGREES):  4603 ; 1.250 ; 1.586
REMARK   3   TORSION ANGLES, PERIOD 1    (DEGREES):   298 ; 8.069 ; 5.000
REMARK   3   TORSION ANGLES, PERIOD 2    (DEGREES):   101 ;33.811 ;22.574
REMARK   3   TORSION ANGLES, PERIOD 3    (DEGREES):   325 ;16.563 ;15.000
REMARK   3   TORSION ANGLES, PERIOD 4    (DEGREES):    10 ;17.299 ;15.000
REMARK   3   CHIRAL-CENTER RESTRAINTS       (A**3):   260 ; 0.071 ; 0.200
REMARK   3   GENERAL PLANES REFINED ATOMS      (A):  2677 ; 0.015 ; 0.020
REMARK   3   GENERAL PLANES OTHERS             (A):   542 ; 0.004 ; 0.020
REMARK   3
REMARK   3  ISOTROPIC THERMAL FACTOR RESTRAINTS.     COUNT   RMS    WEIGHT
REMARK   3   MAIN-CHAIN BOND REFINED ATOMS  (A**2):  1342 ; 1.111 ; 2.327
REMARK   3   MAIN-CHAIN BOND OTHER ATOMS    (A**2):  1256 ; 1.146 ; 2.017
REMARK   3   MAIN-CHAIN ANGLE REFINED ATOMS (A**2):  1416 ; 2.178 ; 3.038
REMARK   3   MAIN-CHAIN ANGLE OTHER ATOMS (A**2)  :  1417 ; 2.178 ; 3.042
REMARK   3   SIDE-CHAIN BOND REFINED ATOMS  (A**2):  1353 ; 1.069 ; 2.371
REMARK   3   SIDE-CHAIN BOND OTHER ATOMS  (A**2)  :  1354 ; 1.069 ; 2.373
REMARK   3   SIDE-CHAIN ANGLE OTHER ATOMS (A**2)  :  1642 ; 2.018 ; 3.334
REMARK   3   LONG RANGE B REFINED ATOMS (A**2)    :  2423 ;16.013 ;22.832
REMARK   3   LONG RANGE B OTHER ATOMS (A**2)      :  2403 ;16.000 ;22.257
REMARK   3
REMARK   3  NCS RESTRAINTS STATISTICS
REMARK   3   NUMBER OF NCS GROUPS : NULL
REMARK   3
REMARK   3  TWIN DETAILS
REMARK   3   NUMBER OF TWIN DOMAINS  : NULL
REMARK   3
REMARK   3
REMARK   3  TLS DETAILS
REMARK   3   NUMBER OF TLS GROUPS  :    2
REMARK   3   ATOM RECORD CONTAINS SUM OF TLS AND RESIDUAL B FACTORS
REMARK   3
REMARK   3   TLS GROUP :     1
REMARK   3    NUMBER OF COMPONENTS GROUP :    1
REMARK   3    COMPONENTS        C SSSEQI   TO  C SSSEQI
REMARK   3    RESIDUE RANGE :   A    50        A    88
REMARK   3    ORIGIN FOR THE GROUP (A): -13.4649  -1.9795 -19.3066
REMARK   3    T TENSOR
REMARK   3      T11:   0.3926 T22:   0.4385
REMARK   3      T33:   0.0633 T12:   0.1247
REMARK   3      T13:   0.1017 T23:   0.0832
REMARK   3    L TENSOR
REMARK   3      L11:   3.2320 L22:   4.5816
REMARK   3      L33:   1.5151 L12:  -1.4760
REMARK   3      L13:   0.8683 L23:   0.8731
REMARK   3    S TENSOR
REMARK   3      S11:   0.4047 S12:   0.4727 S13:   0.3519
REMARK   3      S21:  -0.5106 S22:  -0.3992 S23:  -0.4456
REMARK   3      S31:  -0.0162 S32:   0.2150 S33:  -0.0056
REMARK   3
REMARK   3   TLS GROUP :     2
REMARK   3    NUMBER OF COMPONENTS GROUP :    1
REMARK   3    COMPONENTS        C SSSEQI   TO  C SSSEQI
REMARK   3    RESIDUE RANGE :   B    16        B   305
REMARK   3    ORIGIN FOR THE GROUP (A): -18.4338   0.8036 -15.9419
REMARK   3    T TENSOR
REMARK   3      T11:   0.6230 T22:   0.5875
REMARK   3      T33:   0.0869 T12:   0.1135
REMARK   3      T13:   0.0482 T23:  -0.0002
REMARK   3    L TENSOR
REMARK   3      L11:   0.7620 L22:   0.7286
REMARK   3      L33:   1.6499 L12:  -0.6492
REMARK   3      L13:   0.4304 L23:  -0.0001
REMARK   3    S TENSOR
REMARK   3      S11:   0.1969 S12:   0.1009 S13:   0.0871
REMARK   3      S21:  -0.1306 S22:  -0.1990 S23:  -0.0186
REMARK   3      S31:   0.1188 S32:   0.1057 S33:   0.0022
REMARK   3
REMARK   3
REMARK   3  BULK SOLVENT MODELLING.
REMARK   3   METHOD USED :  MASK
REMARK   3   PARAMETERS FOR MASK CALCULATION
REMARK   3   VDW PROBE RADIUS   :   1.20
REMARK   3   ION PROBE RADIUS   :   0.80
REMARK   3   SHRINKAGE RADIUS   :   0.80
REMARK   3
REMARK   3  OTHER REFINEMENT REMARKS:
REMARK   3  HYDROGENS HAVE BEEN ADDED IN THE RIDING POSITIONS
REMARK   3  U VALUES      : WITH TLS ADDED
REMARK   3
CRYST1   42.422   42.422  216.229  90.00  90.00  90.00 P 43 2 2                 


$$$$
Zx1682a_ligand
  PyMOL3.0          3D                             0

 16 17  0  0  0  0  0  0  0  0999 V2000
   -6.0260    4.9040  -18.9350 C   0  0  0  0  0  0  0  0  0  0  0  0
   -6.1860    4.9240  -20.3090 N   0  0  0  0  0  0  0  0  0  0  0  0
   -7.6550    4.3900  -14.4150 O   0  0  0  0  0  0  0  0  0  0  0  0
   -4.7750    5.1360  -18.3870 C   0  0  0  0  0  0  0  0  0  0  0  0
   -5.6270    4.8760  -16.1430 N   0  0  0  0  0  0  0  0  0  0  0  0
   -4.6460    5.1100  -16.9900 C   0  0  0  0  0  0  0  0  0  0  0  0
   -6.8780    4.6440  -16.6490 C   0  0  0  0  0  0  0  0  0  0  0  0
   -7.9630    4.3990  -15.7550 C   0  0  0  0  0  0  0  0  0  0  0  0
   -9.2140    4.1490  -16.2400 C   0  0  0  0  0  0  0  0  0  0  0  0
   -9.4550    4.1550  -17.6230 C   0  0  0  0  0  0  0  0  0  0  0  0
   -8.4450    4.3930  -18.5020 C   0  0  0  0  0  0  0  0  0  0  0  0
   -7.1300    4.6450  -18.0510 C   0  0  0  0  0  0  0  0  0  0  0  0
   -7.7860    5.6020  -13.6700 C   0  0  0  0  0  0  0  0  0  0  0  0
   -7.1290    6.6130  -14.2130 F   0  0  0  0  0  0  0  0  0  0  0  0
   -9.0500    5.9700  -13.5510 F   0  0  0  0  0  0  0  0  0  0  0  0
   -7.2950    5.4620  -12.4510 F   0  0  0  0  0  0  0  0  0  0  0  0
  1  4  4  0  0  0  0
  1 12  4  0  0  0  0
  1  2  1  0  0  0  0
  3 13  1  0  0  0  0
  4  6  4  0  0  0  0
  5  7  4  0  0  0  0
  5  6  4  0  0  0  0
  7  8  4  0  0  0  0
  7 12  4  0  0  0  0
  3  8  1  0  0  0  0
  8  9  4  0  0  0  0
  9 10  4  0  0  0  0
 10 11  4  0  0  0  0
 11 12  4  0  0  0  0
 13 14  1  0  0  0  0
 13 15  1  0  0  0  0
 13 16  1  0  0  0  0
M  END
>  <pdb_header>
COMPND    XX01ZVNS2B-x1682_B_301_XX01ZVNS2B-x1291+B+301+1


$$$$
Zx1688a
  PyMOL3.0          3D                             0

 17 19  0  0  0  0  0  0  0  0999 V2000
   -7.0660    7.6440  -10.8500 C   0  0  0  0  0  0  0  0  0  0  0  0
   -7.5270    6.7190  -13.1330 N   0  0  0  0  0  0  0  0  0  0  0  0
   -7.4950    6.5920  -11.8090 C   0  0  0  0  0  0  0  0  0  0  0  0
   -7.9180    5.3670  -11.4450 N   0  0  0  0  0  0  0  0  0  0  0  0
   -7.9790    5.5040  -13.6360 C   0  0  0  0  0  0  0  0  0  0  0  0
   -6.4490    5.2610  -18.3860 N   0  0  0  0  0  0  0  0  0  0  0  0
   -8.2280    4.6740  -12.5770 C   0  0  0  0  0  0  0  0  0  0  0  0
   -8.1740    5.2280  -15.0740 C   0  0  0  0  0  0  0  0  0  0  0  0
   -9.4030    4.7530  -15.4810 C   0  0  0  0  0  0  0  0  0  0  0  0
   -9.6540    4.4550  -16.8300 C   0  0  0  0  0  0  0  0  0  0  0  0
   -8.6980    4.6180  -17.7970 C   0  0  0  0  0  0  0  0  0  0  0  0
   -7.4080    5.1040  -17.4160 C   0  0  0  0  0  0  0  0  0  0  0  0
   -5.2570    5.7080  -18.0190 C   0  0  0  0  0  0  0  0  0  0  0  0
   -4.9020    6.0310  -16.6960 C   0  0  0  0  0  0  0  0  0  0  0  0
   -5.8400    5.8810  -15.7170 C   0  0  0  0  0  0  0  0  0  0  0  0
   -7.1360    5.4060  -16.0500 C   0  0  0  0  0  0  0  0  0  0  0  0
   -9.0030    4.2850  -19.2280 C   0  0  0  0  0  0  0  0  0  0  0  0
  1  3  1  0  0  0  0
  2  3  4  0  0  0  0
  3  4  4  0  0  0  0
  2  5  4  0  0  0  0
  5  7  4  0  0  0  0
  5  8  1  0  0  0  0
  4  7  4  0  0  0  0
  8  9  4  0  0  0  0
  9 10  4  0  0  0  0
 10 11  4  0  0  0  0
 11 12  4  0  0  0  0
  6 12  4  0  0  0  0
  6 13  4  0  0  0  0
 13 14  4  0  0  0  0
 14 15  4  0  0  0  0
 15 16  4  0  0  0  0
  8 16  4  0  0  0  0
 12 16  4  0  0  0  0
 11 17  1  0  0  0  0
M  END
>  <pdb_header>
HEADER    ----                                    22-NOV-23   XXXX              
TITLE     ---                                                                   
REMARK   3
REMARK   3 REFINEMENT.
REMARK   3   PROGRAM     : REFMAC 5.8.0267   
REMARK   3   AUTHORS     : MURSHUDOV,SKUBAK,LEBEDEV,PANNU,
REMARK   3                 STEINER,NICHOLLS,WINN,LONG,VAGIN
REMARK   3
REMARK   3    REFINEMENT TARGET : MAXIMUM LIKELIHOOD
REMARK   3
REMARK   3  DATA USED IN REFINEMENT.
REMARK   3   RESOLUTION RANGE HIGH (ANGSTROMS) :   1.77
REMARK   3   RESOLUTION RANGE LOW  (ANGSTROMS) :  54.12
REMARK   3   DATA CUTOFF            (SIGMA(F)) : NONE
REMARK   3   COMPLETENESS FOR RANGE        (%) :  85.38
REMARK   3   NUMBER OF REFLECTIONS             :   16564
REMARK   3
REMARK   3  FIT TO DATA USED IN REFINEMENT.
REMARK   3   CROSS-VALIDATION METHOD          : THROUGHOUT
REMARK   3   FREE R VALUE TEST SET SELECTION  : RANDOM
REMARK   3   R VALUE     (WORKING + TEST SET) : 0.24068
REMARK   3   R VALUE            (WORKING SET) :  0.23801
REMARK   3   FREE R VALUE                     :  0.29188
REMARK   3   FREE R VALUE TEST SET SIZE   (%) :  4.8
REMARK   3   FREE R VALUE TEST SET COUNT      :   844
REMARK   3
REMARK   3  FIT IN THE HIGHEST RESOLUTION BIN.
REMARK   3   TOTAL NUMBER OF BINS USED           :      20
REMARK   3   BIN RESOLUTION RANGE HIGH           :    1.769
REMARK   3   BIN RESOLUTION RANGE LOW            :    1.814
REMARK   3   REFLECTION IN BIN     (WORKING SET) :       91
REMARK   3   BIN COMPLETENESS (WORKING+TEST) (%) :     6.34
REMARK   3   BIN R VALUE           (WORKING SET) :    0.665
REMARK   3   BIN FREE R VALUE SET COUNT          :        1
REMARK   3   BIN FREE R VALUE                    :    0.878
REMARK   3
REMARK   3  NUMBER OF NON-HYDROGEN ATOMS USED IN REFINEMENT.
REMARK   3   ALL ATOMS                :     1899
REMARK   3
REMARK   3  B VALUES.
REMARK   3   FROM WILSON PLOT           (A**2) : NULL
REMARK   3   MEAN B VALUE      (OVERALL, A**2) :  57.587
REMARK   3   OVERALL ANISOTROPIC B VALUE.
REMARK   3    B11 (A**2) :     0.29
REMARK   3    B22 (A**2) :     0.29
REMARK   3    B33 (A**2) :    -0.58
REMARK   3    B12 (A**2) :    -0.00
REMARK   3    B13 (A**2) :    -0.00
REMARK   3    B23 (A**2) :    -0.00
REMARK   3
REMARK   3  ESTIMATED OVERALL COORDINATE ERROR.
REMARK   3   ESU BASED ON R VALUE                            (A):   0.208
REMARK   3   ESU BASED ON FREE R VALUE                       (A):   0.187
REMARK   3   ESU BASED ON MAXIMUM LIKELIHOOD                 (A):   0.301
REMARK   3   ESU FOR B VALUES BASED ON MAXIMUM LIKELIHOOD (A**2):  24.400
REMARK   3
REMARK   3 CORRELATION COEFFICIENTS.
REMARK   3   CORRELATION COEFFICIENT FO-FC      :   0.961
REMARK   3   CORRELATION COEFFICIENT FO-FC FREE :   0.936
REMARK   3
REMARK   3  RMS DEVIATIONS FROM IDEAL VALUES        COUNT    RMS    WEIGHT
REMARK   3   BOND LENGTHS REFINED ATOMS        (A):  2049 ; 0.010 ; 0.014
REMARK   3   BOND LENGTHS OTHERS               (A):  1697 ; 0.002 ; 0.015
REMARK   3   BOND ANGLES REFINED ATOMS   (DEGREES):  2479 ; 1.664 ; 1.636
REMARK   3   BOND ANGLES OTHERS          (DEGREES):  3916 ; 1.216 ; 1.594
REMARK   3   TORSION ANGLES, PERIOD 1    (DEGREES):   241 ; 7.698 ; 5.000
REMARK   3   TORSION ANGLES, PERIOD 2    (DEGREES):    80 ;33.406 ;22.500
REMARK   3   TORSION ANGLES, PERIOD 3    (DEGREES):   289 ;17.629 ;15.000
REMARK   3   TORSION ANGLES, PERIOD 4    (DEGREES):    10 ;16.985 ;15.000
REMARK   3   CHIRAL-CENTER RESTRAINTS       (A**3):   222 ; 0.071 ; 0.200
REMARK   3   GENERAL PLANES REFINED ATOMS      (A):  2132 ; 0.008 ; 0.020
REMARK   3   GENERAL PLANES OTHERS             (A):   412 ; 0.001 ; 0.020
REMARK   3
REMARK   3  ISOTROPIC THERMAL FACTOR RESTRAINTS.     COUNT   RMS    WEIGHT
REMARK   3   MAIN-CHAIN BOND REFINED ATOMS  (A**2):  1048 ; 1.667 ; 2.951
REMARK   3   MAIN-CHAIN BOND OTHER ATOMS    (A**2):   994 ; 1.702 ; 2.731
REMARK   3   MAIN-CHAIN ANGLE REFINED ATOMS (A**2):  1167 ; 3.101 ; 3.999
REMARK   3   MAIN-CHAIN ANGLE OTHER ATOMS (A**2)  :  1168 ; 3.101 ; 4.003
REMARK   3   SIDE-CHAIN BOND REFINED ATOMS  (A**2):  1001 ; 1.800 ; 3.260
REMARK   3   SIDE-CHAIN BOND OTHER ATOMS  (A**2)  :  1002 ; 1.799 ; 3.275
REMARK   3   SIDE-CHAIN ANGLE OTHER ATOMS (A**2)  :  1313 ; 3.180 ; 4.500
REMARK   3   LONG RANGE B REFINED ATOMS (A**2)    :  1963 ;10.171 ;30.293
REMARK   3   LONG RANGE B OTHER ATOMS (A**2)      :  1944 ;10.135 ;29.762
REMARK   3
REMARK   3  NCS RESTRAINTS STATISTICS
REMARK   3   NUMBER OF NCS GROUPS : NULL
REMARK   3
REMARK   3  TWIN DETAILS
REMARK   3   NUMBER OF TWIN DOMAINS  : NULL
REMARK   3
REMARK   3
REMARK   3  TLS DETAILS
REMARK   3   NUMBER OF TLS GROUPS  :    2
REMARK   3   ATOM RECORD CONTAINS SUM OF TLS AND RESIDUAL B FACTORS
REMARK   3
REMARK   3   TLS GROUP :     1
REMARK   3    NUMBER OF COMPONENTS GROUP :    1
REMARK   3    COMPONENTS        C SSSEQI   TO  C SSSEQI
REMARK   3    RESIDUE RANGE :   A    50        A    88
REMARK   3    ORIGIN FOR THE GROUP (A): -13.2448  -2.1641 -19.2330
REMARK   3    T TENSOR
REMARK   3      T11:   0.4181 T22:   0.4463
REMARK   3      T33:   0.0680 T12:   0.1045
REMARK   3      T13:   0.0799 T23:   0.0817
REMARK   3    L TENSOR
REMARK   3      L11:   1.6234 L22:   1.6829
REMARK   3      L33:   0.8643 L12:  -0.0148
REMARK   3      L13:  -0.4788 L23:   0.4864
REMARK   3    S TENSOR
REMARK   3      S11:   0.2604 S12:   0.2562 S13:   0.2276
REMARK   3      S21:  -0.2076 S22:  -0.2318 S23:  -0.1888
REMARK   3      S31:  -0.0397 S32:   0.1181 S33:  -0.0285
REMARK   3
REMARK   3   TLS GROUP :     2
REMARK   3    NUMBER OF COMPONENTS GROUP :    1
REMARK   3    COMPONENTS        C SSSEQI   TO  C SSSEQI
REMARK   3    RESIDUE RANGE :   B    16        B   302
REMARK   3    ORIGIN FOR THE GROUP (A): -18.1329   0.3862 -15.8109
REMARK   3    T TENSOR
REMARK   3      T11:   0.4921 T22:   0.4683
REMARK   3      T33:   0.1246 T12:   0.1451
REMARK   3      T13:   0.0499 T23:   0.0089
REMARK   3    L TENSOR
REMARK   3      L11:   0.3335 L22:   0.0893
REMARK   3      L33:   0.7034 L12:  -0.0037
REMARK   3      L13:   0.3912 L23:  -0.0835
REMARK   3    S TENSOR
REMARK   3      S11:   0.1978 S12:   0.1136 S13:   0.0935
REMARK   3      S21:  -0.0785 S22:  -0.1569 S23:   0.0609
REMARK   3      S31:   0.1482 S32:   0.1702 S33:  -0.0409
REMARK   3
REMARK   3
REMARK   3  BULK SOLVENT MODELLING.
REMARK   3   METHOD USED :  MASK
REMARK   3   PARAMETERS FOR MASK CALCULATION
REMARK   3   VDW PROBE RADIUS   :   1.20
REMARK   3   ION PROBE RADIUS   :   0.80
REMARK   3   SHRINKAGE RADIUS   :   0.80
REMARK   3
REMARK   3  OTHER REFINEMENT REMARKS:
REMARK   3  HYDROGENS HAVE BEEN ADDED IN THE RIDING POSITIONS
REMARK   3  U VALUES      : WITH TLS ADDED
REMARK   3
CRYST1   42.326   42.326  216.467  90.00  90.00  90.00 P 43 2 2                 


$$$$
Zx1688a_ligand
  PyMOL3.0          3D                             0

 17 19  0  0  0  0  0  0  0  0999 V2000
   -7.0660    7.6440  -10.8500 C   0  0  0  0  0  0  0  0  0  0  0  0
   -7.5270    6.7190  -13.1330 N   0  0  0  0  0  0  0  0  0  0  0  0
   -7.4950    6.5920  -11.8090 C   0  0  0  0  0  0  0  0  0  0  0  0
   -7.9180    5.3670  -11.4450 N   0  0  0  0  0  0  0  0  0  0  0  0
   -7.9790    5.5040  -13.6360 C   0  0  0  0  0  0  0  0  0  0  0  0
   -6.4490    5.2610  -18.3860 N   0  0  0  0  0  0  0  0  0  0  0  0
   -8.2280    4.6740  -12.5770 C   0  0  0  0  0  0  0  0  0  0  0  0
   -8.1740    5.2280  -15.0740 C   0  0  0  0  0  0  0  0  0  0  0  0
   -9.4030    4.7530  -15.4810 C   0  0  0  0  0  0  0  0  0  0  0  0
   -9.6540    4.4550  -16.8300 C   0  0  0  0  0  0  0  0  0  0  0  0
   -8.6980    4.6180  -17.7970 C   0  0  0  0  0  0  0  0  0  0  0  0
   -7.4080    5.1040  -17.4160 C   0  0  0  0  0  0  0  0  0  0  0  0
   -5.2570    5.7080  -18.0190 C   0  0  0  0  0  0  0  0  0  0  0  0
   -4.9020    6.0310  -16.6960 C   0  0  0  0  0  0  0  0  0  0  0  0
   -5.8400    5.8810  -15.7170 C   0  0  0  0  0  0  0  0  0  0  0  0
   -7.1360    5.4060  -16.0500 C   0  0  0  0  0  0  0  0  0  0  0  0
   -9.0030    4.2850  -19.2280 C   0  0  0  0  0  0  0  0  0  0  0  0
  1  3  1  0  0  0  0
  2  5  4  0  0  0  0
  2  3  4  0  0  0  0
  3  4  4  0  0  0  0
  5  7  4  0  0  0  0
  5  8  1  0  0  0  0
  6 13  4  0  0  0  0
  4  7  4  0  0  0  0
  8  9  4  0  0  0  0
  8 16  4  0  0  0  0
  9 10  4  0  0  0  0
 10 11  4  0  0  0  0
 11 12  4  0  0  0  0
 11 17  1  0  0  0  0
  6 12  4  0  0  0  0
 12 16  4  0  0  0  0
 13 14  4  0  0  0  0
 14 15  4  0  0  0  0
 15 16  4  0  0  0  0
M  END
>  <pdb_header>
COMPND    XX01ZVNS2B-x1688_B_301_XX01ZVNS2B-x1291+B+301+1


$$$$
Zx1713a
  PyMOL3.0          3D                             0

 12 13  0  0  0  0  0  0  0  0999 V2000
   -5.2170    5.6240  -16.0930 C   0  0  0  0  0  0  0  0  0  0  0  0
   -3.9100    6.0300  -16.2880 N   0  0  0  0  0  0  0  0  0  0  0  0
   -5.7460    5.5010  -14.8150 C   0  0  0  0  0  0  0  0  0  0  0  0
   -7.8910    4.7930  -15.6720 N   0  0  0  0  0  0  0  0  0  0  0  0
   -7.0830    5.0890  -14.6750 C   0  0  0  0  0  0  0  0  0  0  0  0
   -7.3950    4.9130  -16.9450 C   0  0  0  0  0  0  0  0  0  0  0  0
   -8.2450    4.6110  -18.0420 C   0  0  0  0  0  0  0  0  0  0  0  0
   -7.7870    4.7160  -19.3220 C   0  0  0  0  0  0  0  0  0  0  0  0
   -6.4710    5.1240  -19.5760 C   0  0  0  0  0  0  0  0  0  0  0  0
   -5.6270    5.4180  -18.5530 C   0  0  0  0  0  0  0  0  0  0  0  0
   -6.0590    5.3260  -17.2120 C   0  0  0  0  0  0  0  0  0  0  0  0
   -9.8750    4.1090  -17.7500 Cl  0  0  0  0  0  0  0  0  0  0  0  0
  1  2  1  0  0  0  0
  1  3  4  0  0  0  0
  1 11  4  0  0  0  0
  3  5  4  0  0  0  0
  4  5  4  0  0  0  0
  4  6  4  0  0  0  0
  6  7  4  0  0  0  0
  6 11  4  0  0  0  0
  7  8  4  0  0  0  0
  7 12  1  0  0  0  0
  8  9  4  0  0  0  0
  9 10  4  0  0  0  0
 10 11  4  0  0  0  0
M  END
>  <pdb_header>
HEADER    ----                                    22-DEC-23   XXXX              
TITLE     ---                                                                   
REMARK   3
REMARK   3 REFINEMENT.
REMARK   3   PROGRAM     : REFMAC 5.8.0267   
REMARK   3   AUTHORS     : MURSHUDOV,SKUBAK,LEBEDEV,PANNU,
REMARK   3                 STEINER,NICHOLLS,WINN,LONG,VAGIN
REMARK   3
REMARK   3    REFINEMENT TARGET : MAXIMUM LIKELIHOOD
REMARK   3
REMARK   3  DATA USED IN REFINEMENT.
REMARK   3   RESOLUTION RANGE HIGH (ANGSTROMS) :   2.13
REMARK   3   RESOLUTION RANGE LOW  (ANGSTROMS) :  53.91
REMARK   3   DATA CUTOFF            (SIGMA(F)) : NONE
REMARK   3   COMPLETENESS FOR RANGE        (%) :  99.38
REMARK   3   NUMBER OF REFLECTIONS             :   11171
REMARK   3
REMARK   3  FIT TO DATA USED IN REFINEMENT.
REMARK   3   CROSS-VALIDATION METHOD          : THROUGHOUT
REMARK   3   FREE R VALUE TEST SET SELECTION  : RANDOM
REMARK   3   R VALUE     (WORKING + TEST SET) : 0.22719
REMARK   3   R VALUE            (WORKING SET) :  0.22276
REMARK   3   FREE R VALUE                     :  0.31066
REMARK   3   FREE R VALUE TEST SET SIZE   (%) :  4.8
REMARK   3   FREE R VALUE TEST SET COUNT      :   562
REMARK   3
REMARK   3  FIT IN THE HIGHEST RESOLUTION BIN.
REMARK   3   TOTAL NUMBER OF BINS USED           :      20
REMARK   3   BIN RESOLUTION RANGE HIGH           :    2.130
REMARK   3   BIN RESOLUTION RANGE LOW            :    2.185
REMARK   3   REFLECTION IN BIN     (WORKING SET) :      727
REMARK   3   BIN COMPLETENESS (WORKING+TEST) (%) :    93.05
REMARK   3   BIN R VALUE           (WORKING SET) :    0.516
REMARK   3   BIN FREE R VALUE SET COUNT          :       36
REMARK   3   BIN FREE R VALUE                    :    0.529
REMARK   3
REMARK   3  NUMBER OF NON-HYDROGEN ATOMS USED IN REFINEMENT.
REMARK   3   ALL ATOMS                :     2062
REMARK   3
REMARK   3  B VALUES.
REMARK   3   FROM WILSON PLOT           (A**2) : NULL
REMARK   3   MEAN B VALUE      (OVERALL, A**2) :  69.654
REMARK   3   OVERALL ANISOTROPIC B VALUE.
REMARK   3    B11 (A**2) :     3.14
REMARK   3    B22 (A**2) :     3.14
REMARK   3    B33 (A**2) :    -6.28
REMARK   3    B12 (A**2) :    -0.00
REMARK   3    B13 (A**2) :    -0.00
REMARK   3    B23 (A**2) :    -0.00
REMARK   3
REMARK   3  ESTIMATED OVERALL COORDINATE ERROR.
REMARK   3   ESU BASED ON R VALUE                            (A):   0.406
REMARK   3   ESU BASED ON FREE R VALUE                       (A):   0.290
REMARK   3   ESU BASED ON MAXIMUM LIKELIHOOD                 (A):   0.409
REMARK   3   ESU FOR B VALUES BASED ON MAXIMUM LIKELIHOOD (A**2):  18.928
REMARK   3
REMARK   3 CORRELATION COEFFICIENTS.
REMARK   3   CORRELATION COEFFICIENT FO-FC      :   0.967
REMARK   3   CORRELATION COEFFICIENT FO-FC FREE :   0.924
REMARK   3
REMARK   3  RMS DEVIATIONS FROM IDEAL VALUES        COUNT    RMS    WEIGHT
REMARK   3   BOND LENGTHS REFINED ATOMS        (A):  2297 ; 0.008 ; 0.014
REMARK   3   BOND LENGTHS OTHERS               (A):  1847 ; 0.001 ; 0.015
REMARK   3   BOND ANGLES REFINED ATOMS   (DEGREES):  2689 ; 1.532 ; 1.634
REMARK   3   BOND ANGLES OTHERS          (DEGREES):  4271 ; 1.179 ; 1.592
REMARK   3   TORSION ANGLES, PERIOD 1    (DEGREES):   268 ; 7.803 ; 5.000
REMARK   3   TORSION ANGLES, PERIOD 2    (DEGREES):    86 ;34.583 ;23.023
REMARK   3   TORSION ANGLES, PERIOD 3    (DEGREES):   322 ;16.445 ;15.000
REMARK   3   TORSION ANGLES, PERIOD 4    (DEGREES):    10 ;17.895 ;15.000
REMARK   3   CHIRAL-CENTER RESTRAINTS       (A**3):   246 ; 0.055 ; 0.200
REMARK   3   GENERAL PLANES REFINED ATOMS      (A):  2341 ; 0.006 ; 0.020
REMARK   3   GENERAL PLANES OTHERS             (A):   445 ; 0.002 ; 0.020
REMARK   3
REMARK   3  ISOTROPIC THERMAL FACTOR RESTRAINTS.     COUNT   RMS    WEIGHT
REMARK   3   MAIN-CHAIN BOND REFINED ATOMS  (A**2):  1197 ; 5.112 ; 7.005
REMARK   3   MAIN-CHAIN BOND OTHER ATOMS    (A**2):  1125 ; 5.249 ; 6.968
REMARK   3   MAIN-CHAIN ANGLE REFINED ATOMS (A**2):  1290 ; 7.763 ;10.299
REMARK   3   MAIN-CHAIN ANGLE OTHER ATOMS (A**2)  :  1291 ; 7.770 ;10.303
REMARK   3   SIDE-CHAIN BOND REFINED ATOMS  (A**2):  1099 ; 5.818 ; 7.657
REMARK   3   SIDE-CHAIN BOND OTHER ATOMS  (A**2)  :  1098 ; 5.821 ; 7.658
REMARK   3   SIDE-CHAIN ANGLE OTHER ATOMS (A**2)  :  1399 ; 8.894 ;10.974
REMARK   3   LONG RANGE B REFINED ATOMS (A**2)    :  2114 ;12.948 ;74.190
REMARK   3   LONG RANGE B OTHER ATOMS (A**2)      :  2101 ;12.886 ;74.069
REMARK   3
REMARK   3  NCS RESTRAINTS STATISTICS
REMARK   3   NUMBER OF NCS GROUPS : NULL
REMARK   3
REMARK   3  TWIN DETAILS
REMARK   3   NUMBER OF TWIN DOMAINS  : NULL
REMARK   3
REMARK   3
REMARK   3  TLS DETAILS
REMARK   3   NUMBER OF TLS GROUPS  : NULL
REMARK   3
REMARK   3
REMARK   3  BULK SOLVENT MODELLING.
REMARK   3   METHOD USED :  MASK
REMARK   3   PARAMETERS FOR MASK CALCULATION
REMARK   3   VDW PROBE RADIUS   :   1.20
REMARK   3   ION PROBE RADIUS   :   0.80
REMARK   3   SHRINKAGE RADIUS   :   0.80
REMARK   3
REMARK   3  OTHER REFINEMENT REMARKS:
REMARK   3  HYDROGENS HAVE BEEN ADDED IN THE RIDING POSITIONS
REMARK   3  U VALUES      : REFINED INDIVIDUALLY
REMARK   3
CRYST1   42.230   42.230  215.630  90.00  90.00  90.00 P 43 2 2                 


$$$$
Zx1713a_ligand
  PyMOL3.0          3D                             0

 12 13  0  0  0  0  0  0  0  0999 V2000
   -9.8750    4.1090  -17.7500 Cl  0  0  0  0  0  0  0  0  0  0  0  0
   -5.2170    5.6240  -16.0930 C   0  0  0  0  0  0  0  0  0  0  0  0
   -3.9100    6.0300  -16.2880 N   0  0  0  0  0  0  0  0  0  0  0  0
   -5.7460    5.5010  -14.8150 C   0  0  0  0  0  0  0  0  0  0  0  0
   -7.8910    4.7930  -15.6720 N   0  0  0  0  0  0  0  0  0  0  0  0
   -7.0830    5.0890  -14.6750 C   0  0  0  0  0  0  0  0  0  0  0  0
   -7.3950    4.9130  -16.9450 C   0  0  0  0  0  0  0  0  0  0  0  0
   -8.2450    4.6110  -18.0420 C   0  0  0  0  0  0  0  0  0  0  0  0
   -7.7870    4.7160  -19.3220 C   0  0  0  0  0  0  0  0  0  0  0  0
   -6.4710    5.1240  -19.5760 C   0  0  0  0  0  0  0  0  0  0  0  0
   -5.6270    5.4180  -18.5530 C   0  0  0  0  0  0  0  0  0  0  0  0
   -6.0590    5.3260  -17.2120 C   0  0  0  0  0  0  0  0  0  0  0  0
  2  4  4  0  0  0  0
  2 12  4  0  0  0  0
  2  3  1  0  0  0  0
  4  6  4  0  0  0  0
  5  7  4  0  0  0  0
  5  6  4  0  0  0  0
  7  8  4  0  0  0  0
  7 12  4  0  0  0  0
  1  8  1  0  0  0  0
  8  9  4  0  0  0  0
  9 10  4  0  0  0  0
 10 11  4  0  0  0  0
 11 12  4  0  0  0  0
M  END
>  <pdb_header>
COMPND    XX01ZVNS2B-x1713_B_301_XX01ZVNS2B-x1291+B+301+1


$$$$
Zx1715a
  PyMOL3.0          3D                             0

 17 18  0  0  0  0  0  0  0  0999 V2000
   -9.9720    4.2080  -18.6250 C   0  0  0  0  0  0  0  0  0  0  0  0
   -7.6150    4.7550  -18.6460 N   0  0  0  0  0  0  0  0  0  0  0  0
   -7.2910    4.6480  -14.4930 O   0  0  0  0  0  0  0  0  0  0  0  0
   -8.6820    4.4770  -17.9080 C   0  0  0  0  0  0  0  0  0  0  0  0
   -8.7650    2.8820  -11.8020 N   0  0  0  0  0  0  0  0  0  0  0  0
   -8.0190    2.0680  -13.7750 O   0  0  0  0  0  0  0  0  0  0  0  0
   -8.6520    4.4190  -16.4960 C   0  0  0  0  0  0  0  0  0  0  0  0
   -7.4710    4.6720  -15.8460 C   0  0  0  0  0  0  0  0  0  0  0  0
   -6.2990    4.9680  -16.6010 C   0  0  0  0  0  0  0  0  0  0  0  0
   -5.0440    5.2270  -15.9980 C   0  0  0  0  0  0  0  0  0  0  0  0
   -3.9620    5.5060  -16.7670 C   0  0  0  0  0  0  0  0  0  0  0  0
   -4.0890    5.5380  -18.1710 C   0  0  0  0  0  0  0  0  0  0  0  0
   -5.2790    5.2990  -18.8180 C   0  0  0  0  0  0  0  0  0  0  0  0
   -6.4270    5.0030  -18.0190 C   0  0  0  0  0  0  0  0  0  0  0  0
   -5.3680    5.3340  -20.3180 C   0  0  0  0  0  0  0  0  0  0  0  0
   -8.4050    4.4110  -13.6330 C   0  0  0  0  0  0  0  0  0  0  0  0
   -8.3790    3.0150  -13.0650 C   0  0  0  0  0  0  0  0  0  0  0  0
  1  4  1  0  0  0  0
  2  4  4  0  0  0  0
  4  7  4  0  0  0  0
  7  8  4  0  0  0  0
  3  8  1  0  0  0  0
  8  9  4  0  0  0  0
  9 10  4  0  0  0  0
 10 11  4  0  0  0  0
 11 12  4  0  0  0  0
 12 13  4  0  0  0  0
  2 14  4  0  0  0  0
  9 14  4  0  0  0  0
 13 14  4  0  0  0  0
 13 15  1  0  0  0  0
  3 16  1  0  0  0  0
 16 17  1  0  0  0  0
  5 17  1  0  0  0  0
  6 17  2  0  0  0  0
M  END
>  <pdb_header>
HEADER    ----                                    08-JAN-24   XXXX              
TITLE     ---                                                                   
REMARK   3
REMARK   3 REFINEMENT.
REMARK   3   PROGRAM     : REFMAC 5.8.0267   
REMARK   3   AUTHORS     : MURSHUDOV,SKUBAK,LEBEDEV,PANNU,
REMARK   3                 STEINER,NICHOLLS,WINN,LONG,VAGIN
REMARK   3
REMARK   3    REFINEMENT TARGET : MAXIMUM LIKELIHOOD
REMARK   3
REMARK   3  DATA USED IN REFINEMENT.
REMARK   3   RESOLUTION RANGE HIGH (ANGSTROMS) :   1.99
REMARK   3   RESOLUTION RANGE LOW  (ANGSTROMS) :  54.02
REMARK   3   DATA CUTOFF            (SIGMA(F)) : NONE
REMARK   3   COMPLETENESS FOR RANGE        (%) :  89.48
REMARK   3   NUMBER OF REFLECTIONS             :   12368
REMARK   3
REMARK   3  FIT TO DATA USED IN REFINEMENT.
REMARK   3   CROSS-VALIDATION METHOD          : THROUGHOUT
REMARK   3   FREE R VALUE TEST SET SELECTION  : RANDOM
REMARK   3   R VALUE     (WORKING + TEST SET) : 0.23011
REMARK   3   R VALUE            (WORKING SET) :  0.22610
REMARK   3   FREE R VALUE                     :  0.30606
REMARK   3   FREE R VALUE TEST SET SIZE   (%) :  4.7
REMARK   3   FREE R VALUE TEST SET COUNT      :   614
REMARK   3
REMARK   3  FIT IN THE HIGHEST RESOLUTION BIN.
REMARK   3   TOTAL NUMBER OF BINS USED           :      20
REMARK   3   BIN RESOLUTION RANGE HIGH           :    1.988
REMARK   3   BIN RESOLUTION RANGE LOW            :    2.039
REMARK   3   REFLECTION IN BIN     (WORKING SET) :      678
REMARK   3   BIN COMPLETENESS (WORKING+TEST) (%) :    68.27
REMARK   3   BIN R VALUE           (WORKING SET) :    0.428
REMARK   3   BIN FREE R VALUE SET COUNT          :       32
REMARK   3   BIN FREE R VALUE                    :    0.557
REMARK   3
REMARK   3  NUMBER OF NON-HYDROGEN ATOMS USED IN REFINEMENT.
REMARK   3   ALL ATOMS                :     2001
REMARK   3
REMARK   3  B VALUES.
REMARK   3   FROM WILSON PLOT           (A**2) : NULL
REMARK   3   MEAN B VALUE      (OVERALL, A**2) :  55.171
REMARK   3   OVERALL ANISOTROPIC B VALUE.
REMARK   3    B11 (A**2) :     2.24
REMARK   3    B22 (A**2) :     2.24
REMARK   3    B33 (A**2) :    -4.48
REMARK   3    B12 (A**2) :    -0.00
REMARK   3    B13 (A**2) :    -0.00
REMARK   3    B23 (A**2) :    -0.00
REMARK   3
REMARK   3  ESTIMATED OVERALL COORDINATE ERROR.
REMARK   3   ESU BASED ON R VALUE                            (A):   0.321
REMARK   3   ESU BASED ON FREE R VALUE                       (A):   0.258
REMARK   3   ESU BASED ON MAXIMUM LIKELIHOOD                 (A):   0.276
REMARK   3   ESU FOR B VALUES BASED ON MAXIMUM LIKELIHOOD (A**2):  11.034
REMARK   3
REMARK   3 CORRELATION COEFFICIENTS.
REMARK   3   CORRELATION COEFFICIENT FO-FC      :   0.962
REMARK   3   CORRELATION COEFFICIENT FO-FC FREE :   0.919
REMARK   3
REMARK   3  RMS DEVIATIONS FROM IDEAL VALUES        COUNT    RMS    WEIGHT
REMARK   3   BOND LENGTHS REFINED ATOMS        (A):  2200 ; 0.008 ; 0.014
REMARK   3   BOND LENGTHS OTHERS               (A):  1791 ; 0.001 ; 0.015
REMARK   3   BOND ANGLES REFINED ATOMS   (DEGREES):  2628 ; 1.546 ; 1.640
REMARK   3   BOND ANGLES OTHERS          (DEGREES):  4133 ; 1.179 ; 1.591
REMARK   3   TORSION ANGLES, PERIOD 1    (DEGREES):   259 ; 7.800 ; 5.000
REMARK   3   TORSION ANGLES, PERIOD 2    (DEGREES):    89 ;33.692 ;21.910
REMARK   3   TORSION ANGLES, PERIOD 3    (DEGREES):   307 ;16.594 ;15.000
REMARK   3   TORSION ANGLES, PERIOD 4    (DEGREES):    13 ;18.537 ;15.000
REMARK   3   CHIRAL-CENTER RESTRAINTS       (A**3):   231 ; 0.056 ; 0.200
REMARK   3   GENERAL PLANES REFINED ATOMS      (A):  2287 ; 0.006 ; 0.020
REMARK   3   GENERAL PLANES OTHERS             (A):   445 ; 0.001 ; 0.020
REMARK   3
REMARK   3  ISOTROPIC THERMAL FACTOR RESTRAINTS.     COUNT   RMS    WEIGHT
REMARK   3   MAIN-CHAIN BOND REFINED ATOMS  (A**2):  1113 ; 4.032 ; 5.588
REMARK   3   MAIN-CHAIN BOND OTHER ATOMS    (A**2):  1064 ; 4.123 ; 5.528
REMARK   3   MAIN-CHAIN ANGLE REFINED ATOMS (A**2):  1245 ; 6.360 ; 8.170
REMARK   3   MAIN-CHAIN ANGLE OTHER ATOMS (A**2)  :  1246 ; 6.358 ; 8.174
REMARK   3   SIDE-CHAIN BOND REFINED ATOMS  (A**2):  1086 ; 4.445 ; 6.075
REMARK   3   SIDE-CHAIN BOND OTHER ATOMS  (A**2)  :  1087 ; 4.443 ; 6.077
REMARK   3   SIDE-CHAIN ANGLE OTHER ATOMS (A**2)  :  1383 ; 6.944 ; 8.662
REMARK   3   LONG RANGE B REFINED ATOMS (A**2)    :  2114 ;12.181 ;59.474
REMARK   3   LONG RANGE B OTHER ATOMS (A**2)      :  2091 ;11.902 ;59.178
REMARK   3
REMARK   3  NCS RESTRAINTS STATISTICS
REMARK   3   NUMBER OF NCS GROUPS : NULL
REMARK   3
REMARK   3  TWIN DETAILS
REMARK   3   NUMBER OF TWIN DOMAINS  : NULL
REMARK   3
REMARK   3
REMARK   3  TLS DETAILS
REMARK   3   NUMBER OF TLS GROUPS  : NULL
REMARK   3
REMARK   3
REMARK   3  BULK SOLVENT MODELLING.
REMARK   3   METHOD USED :  MASK
REMARK   3   PARAMETERS FOR MASK CALCULATION
REMARK   3   VDW PROBE RADIUS   :   1.20
REMARK   3   ION PROBE RADIUS   :   0.80
REMARK   3   SHRINKAGE RADIUS   :   0.80
REMARK   3
REMARK   3  OTHER REFINEMENT REMARKS:
REMARK   3  HYDROGENS HAVE BEEN ADDED IN THE RIDING POSITIONS
REMARK   3  U VALUES      : REFINED INDIVIDUALLY
REMARK   3
CRYST1   42.312   42.312  216.079  90.00  90.00  90.00 P 43 2 2                 


$$$$
Zx1715a_ligand
  PyMOL3.0          3D                             0

 17 18  0  0  0  0  0  0  0  0999 V2000
   -9.9720    4.2080  -18.6250 C   0  0  0  0  0  0  0  0  0  0  0  0
   -7.6150    4.7550  -18.6460 N   0  0  0  0  0  0  0  0  0  0  0  0
   -7.2910    4.6480  -14.4930 O   0  0  0  0  0  0  0  0  0  0  0  0
   -8.6820    4.4770  -17.9080 C   0  0  0  0  0  0  0  0  0  0  0  0
   -8.7650    2.8820  -11.8020 N   0  0  0  0  0  0  0  0  0  0  0  0
   -8.0190    2.0680  -13.7750 O   0  0  0  0  0  0  0  0  0  0  0  0
   -8.6520    4.4190  -16.4960 C   0  0  0  0  0  0  0  0  0  0  0  0
   -7.4710    4.6720  -15.8460 C   0  0  0  0  0  0  0  0  0  0  0  0
   -6.2990    4.9680  -16.6010 C   0  0  0  0  0  0  0  0  0  0  0  0
   -5.0440    5.2270  -15.9980 C   0  0  0  0  0  0  0  0  0  0  0  0
   -3.9620    5.5060  -16.7670 C   0  0  0  0  0  0  0  0  0  0  0  0
   -4.0890    5.5380  -18.1710 C   0  0  0  0  0  0  0  0  0  0  0  0
   -5.2790    5.2990  -18.8180 C   0  0  0  0  0  0  0  0  0  0  0  0
   -6.4270    5.0030  -18.0190 C   0  0  0  0  0  0  0  0  0  0  0  0
   -5.3680    5.3340  -20.3180 C   0  0  0  0  0  0  0  0  0  0  0  0
   -8.4050    4.4110  -13.6330 C   0  0  0  0  0  0  0  0  0  0  0  0
   -8.3790    3.0150  -13.0650 C   0  0  0  0  0  0  0  0  0  0  0  0
  1  4  1  0  0  0  0
  3 16  1  0  0  0  0
  2  4  4  0  0  0  0
  4  7  4  0  0  0  0
  7  8  4  0  0  0  0
  3  8  1  0  0  0  0
  8  9  4  0  0  0  0
  9 10  4  0  0  0  0
  9 14  4  0  0  0  0
 10 11  4  0  0  0  0
 11 12  4  0  0  0  0
 12 13  4  0  0  0  0
 13 14  4  0  0  0  0
 13 15  1  0  0  0  0
  2 14  4  0  0  0  0
 16 17  1  0  0  0  0
  5 17  1  0  0  0  0
  6 17  2  0  0  0  0
M  END
>  <pdb_header>
COMPND    XX01ZVNS2B-x1715_B_301_XX01ZVNS2B-x1291+B+301+1


$$$$
Zx1716a
  PyMOL3.0          3D                             0

 18 19  0  0  0  0  0  0  0  0999 V2000
   -5.2540    8.6200  -13.5650 C   0  0  0  0  0  0  0  0  0  0  0  0
   -5.4230    5.1440  -16.8980 N   0  0  0  0  0  0  0  0  0  0  0  0
   -3.9510    6.6290  -13.3160 O   0  0  0  0  0  0  0  0  0  0  0  0
   -4.4110    7.8370  -12.6310 C   0  0  0  0  0  0  0  0  0  0  0  0
   -7.5910    4.9740  -13.2960 N   0  0  0  0  0  0  0  0  0  0  0  0
   -4.8120    4.8410  -12.2640 O   0  0  0  0  0  0  0  0  0  0  0  0
   -4.7340    5.5460  -13.2400 C   0  0  0  0  0  0  0  0  0  0  0  0
   -6.0650    4.7970  -20.3750 N   0  0  0  0  0  0  0  0  0  0  0  0
   -5.5060    5.3030  -14.4910 C   0  0  0  0  0  0  0  0  0  0  0  0
   -4.8340    5.3440  -15.7390 C   0  0  0  0  0  0  0  0  0  0  0  0
   -6.7680    4.8790  -16.9140 C   0  0  0  0  0  0  0  0  0  0  0  0
   -7.4070    4.6610  -18.1680 C   0  0  0  0  0  0  0  0  0  0  0  0
   -8.7580    4.3880  -18.2150 C   0  0  0  0  0  0  0  0  0  0  0  0
   -9.5220    4.3230  -17.0300 C   0  0  0  0  0  0  0  0  0  0  0  0
   -8.9280    4.5280  -15.8190 C   0  0  0  0  0  0  0  0  0  0  0  0
   -7.5470    4.8100  -15.7200 C   0  0  0  0  0  0  0  0  0  0  0  0
   -6.8900    5.0290  -14.4750 C   0  0  0  0  0  0  0  0  0  0  0  0
   -6.6390    4.7280  -19.3850 C   0  0  0  0  0  0  0  0  0  0  0  0
  1  4  1  0  0  0  0
  3  4  1  0  0  0  0
  3  7  1  0  0  0  0
  6  7  2  0  0  0  0
  7  9  1  0  0  0  0
  9 10  4  0  0  0  0
  2 10  4  0  0  0  0
  2 11  4  0  0  0  0
 11 12  4  0  0  0  0
 12 13  4  0  0  0  0
 13 14  4  0  0  0  0
 14 15  4  0  0  0  0
 15 16  4  0  0  0  0
 11 16  4  0  0  0  0
 16 17  4  0  0  0  0
  5 17  1  0  0  0  0
  9 17  4  0  0  0  0
  8 18  3  0  0  0  0
 12 18  1  0  0  0  0
M  END
>  <pdb_header>
HEADER    ----                                    09-JAN-24   XXXX              
TITLE     ---                                                                   
REMARK   3
REMARK   3 REFINEMENT.
REMARK   3   PROGRAM     : REFMAC 5.8.0267   
REMARK   3   AUTHORS     : MURSHUDOV,SKUBAK,LEBEDEV,PANNU,
REMARK   3                 STEINER,NICHOLLS,WINN,LONG,VAGIN
REMARK   3
REMARK   3    REFINEMENT TARGET : MAXIMUM LIKELIHOOD
REMARK   3
REMARK   3  DATA USED IN REFINEMENT.
REMARK   3   RESOLUTION RANGE HIGH (ANGSTROMS) :   1.73
REMARK   3   RESOLUTION RANGE LOW  (ANGSTROMS) :  54.17
REMARK   3   DATA CUTOFF            (SIGMA(F)) : NONE
REMARK   3   COMPLETENESS FOR RANGE        (%) :  83.04
REMARK   3   NUMBER OF REFLECTIONS             :   17327
REMARK   3
REMARK   3  FIT TO DATA USED IN REFINEMENT.
REMARK   3   CROSS-VALIDATION METHOD          : THROUGHOUT
REMARK   3   FREE R VALUE TEST SET SELECTION  : RANDOM
REMARK   3   R VALUE     (WORKING + TEST SET) : 0.25147
REMARK   3   R VALUE            (WORKING SET) :  0.24826
REMARK   3   FREE R VALUE                     :  0.31252
REMARK   3   FREE R VALUE TEST SET SIZE   (%) :  4.9
REMARK   3   FREE R VALUE TEST SET COUNT      :   896
REMARK   3
REMARK   3  FIT IN THE HIGHEST RESOLUTION BIN.
REMARK   3   TOTAL NUMBER OF BINS USED           :      20
REMARK   3   BIN RESOLUTION RANGE HIGH           :    1.731
REMARK   3   BIN RESOLUTION RANGE LOW            :    1.776
REMARK   3   REFLECTION IN BIN     (WORKING SET) :      167
REMARK   3   BIN COMPLETENESS (WORKING+TEST) (%) :    11.03
REMARK   3   BIN R VALUE           (WORKING SET) :    0.601
REMARK   3   BIN FREE R VALUE SET COUNT          :        9
REMARK   3   BIN FREE R VALUE                    :    0.396
REMARK   3
REMARK   3  NUMBER OF NON-HYDROGEN ATOMS USED IN REFINEMENT.
REMARK   3   ALL ATOMS                :     1928
REMARK   3
REMARK   3  B VALUES.
REMARK   3   FROM WILSON PLOT           (A**2) : NULL
REMARK   3   MEAN B VALUE      (OVERALL, A**2) :  52.589
REMARK   3   OVERALL ANISOTROPIC B VALUE.
REMARK   3    B11 (A**2) :     2.38
REMARK   3    B22 (A**2) :     2.38
REMARK   3    B33 (A**2) :    -4.75
REMARK   3    B12 (A**2) :    -0.00
REMARK   3    B13 (A**2) :    -0.00
REMARK   3    B23 (A**2) :     0.00
REMARK   3
REMARK   3  ESTIMATED OVERALL COORDINATE ERROR.
REMARK   3   ESU BASED ON R VALUE                            (A):   0.208
REMARK   3   ESU BASED ON FREE R VALUE                       (A):   0.195
REMARK   3   ESU BASED ON MAXIMUM LIKELIHOOD                 (A):   0.238
REMARK   3   ESU FOR B VALUES BASED ON MAXIMUM LIKELIHOOD (A**2):   8.420
REMARK   3
REMARK   3 CORRELATION COEFFICIENTS.
REMARK   3   CORRELATION COEFFICIENT FO-FC      :   0.960
REMARK   3   CORRELATION COEFFICIENT FO-FC FREE :   0.936
REMARK   3
REMARK   3  RMS DEVIATIONS FROM IDEAL VALUES        COUNT    RMS    WEIGHT
REMARK   3   BOND LENGTHS REFINED ATOMS        (A):  2099 ; 0.006 ; 0.014
REMARK   3   BOND LENGTHS OTHERS               (A):  1734 ; 0.001 ; 0.015
REMARK   3   BOND ANGLES REFINED ATOMS   (DEGREES):  2552 ; 1.443 ; 1.636
REMARK   3   BOND ANGLES OTHERS          (DEGREES):  4010 ; 1.183 ; 1.591
REMARK   3   TORSION ANGLES, PERIOD 1    (DEGREES):   250 ; 7.426 ; 5.000
REMARK   3   TORSION ANGLES, PERIOD 2    (DEGREES):    83 ;34.841 ;22.771
REMARK   3   TORSION ANGLES, PERIOD 3    (DEGREES):   298 ;15.640 ;15.000
REMARK   3   TORSION ANGLES, PERIOD 4    (DEGREES):    10 ;14.310 ;15.000
REMARK   3   CHIRAL-CENTER RESTRAINTS       (A**3):   228 ; 0.051 ; 0.200
REMARK   3   GENERAL PLANES REFINED ATOMS      (A):  2203 ; 0.006 ; 0.020
REMARK   3   GENERAL PLANES OTHERS             (A):   415 ; 0.001 ; 0.020
REMARK   3
REMARK   3  ISOTROPIC THERMAL FACTOR RESTRAINTS.     COUNT   RMS    WEIGHT
REMARK   3   MAIN-CHAIN BOND REFINED ATOMS  (A**2):  1058 ; 3.412 ; 5.351
REMARK   3   MAIN-CHAIN BOND OTHER ATOMS    (A**2):  1025 ; 3.462 ; 5.298
REMARK   3   MAIN-CHAIN ANGLE REFINED ATOMS (A**2):  1206 ; 5.300 ; 7.831
REMARK   3   MAIN-CHAIN ANGLE OTHER ATOMS (A**2)  :  1207 ; 5.299 ; 7.836
REMARK   3   SIDE-CHAIN BOND REFINED ATOMS  (A**2):  1041 ; 3.899 ; 5.847
REMARK   3   SIDE-CHAIN BOND OTHER ATOMS  (A**2)  :  1042 ; 3.897 ; 5.851
REMARK   3   SIDE-CHAIN ANGLE OTHER ATOMS (A**2)  :  1347 ; 6.238 ; 8.397
REMARK   3   LONG RANGE B REFINED ATOMS (A**2)    :  2044 ; 9.020 ;58.344
REMARK   3   LONG RANGE B OTHER ATOMS (A**2)      :  2027 ; 8.978 ;58.163
REMARK   3
REMARK   3  NCS RESTRAINTS STATISTICS
REMARK   3   NUMBER OF NCS GROUPS : NULL
REMARK   3
REMARK   3  TWIN DETAILS
REMARK   3   NUMBER OF TWIN DOMAINS  : NULL
REMARK   3
REMARK   3
REMARK   3  TLS DETAILS
REMARK   3   NUMBER OF TLS GROUPS  : NULL
REMARK   3
REMARK   3
REMARK   3  BULK SOLVENT MODELLING.
REMARK   3   METHOD USED :  MASK
REMARK   3   PARAMETERS FOR MASK CALCULATION
REMARK   3   VDW PROBE RADIUS   :   1.20
REMARK   3   ION PROBE RADIUS   :   0.80
REMARK   3   SHRINKAGE RADIUS   :   0.80
REMARK   3
REMARK   3  OTHER REFINEMENT REMARKS:
REMARK   3  HYDROGENS HAVE BEEN ADDED IN THE RIDING POSITIONS
REMARK   3  U VALUES      : REFINED INDIVIDUALLY
REMARK   3
CRYST1   42.544   42.544  216.681  90.00  90.00  90.00 P 43 2 2                 


$$$$
Zx1716a_ligand
  PyMOL3.0          3D                             0

 18 19  0  0  0  0  0  0  0  0999 V2000
   -5.2540    8.6200  -13.5650 C   0  0  0  0  0  0  0  0  0  0  0  0
   -5.4230    5.1440  -16.8980 N   0  0  0  0  0  0  0  0  0  0  0  0
   -3.9510    6.6290  -13.3160 O   0  0  0  0  0  0  0  0  0  0  0  0
   -4.4110    7.8370  -12.6310 C   0  0  0  0  0  0  0  0  0  0  0  0
   -7.5910    4.9740  -13.2960 N   0  0  0  0  0  0  0  0  0  0  0  0
   -4.8120    4.8410  -12.2640 O   0  0  0  0  0  0  0  0  0  0  0  0
   -4.7340    5.5460  -13.2400 C   0  0  0  0  0  0  0  0  0  0  0  0
   -6.0650    4.7970  -20.3750 N   0  0  0  0  0  0  0  0  0  0  0  0
   -5.5060    5.3030  -14.4910 C   0  0  0  0  0  0  0  0  0  0  0  0
   -4.8340    5.3440  -15.7390 C   0  0  0  0  0  0  0  0  0  0  0  0
   -6.7680    4.8790  -16.9140 C   0  0  0  0  0  0  0  0  0  0  0  0
   -7.4070    4.6610  -18.1680 C   0  0  0  0  0  0  0  0  0  0  0  0
   -8.7580    4.3880  -18.2150 C   0  0  0  0  0  0  0  0  0  0  0  0
   -9.5220    4.3230  -17.0300 C   0  0  0  0  0  0  0  0  0  0  0  0
   -8.9280    4.5280  -15.8190 C   0  0  0  0  0  0  0  0  0  0  0  0
   -7.5470    4.8100  -15.7200 C   0  0  0  0  0  0  0  0  0  0  0  0
   -6.8900    5.0290  -14.4750 C   0  0  0  0  0  0  0  0  0  0  0  0
   -6.6390    4.7280  -19.3850 C   0  0  0  0  0  0  0  0  0  0  0  0
  1  4  1  0  0  0  0
  2 11  4  0  0  0  0
  3  7  1  0  0  0  0
  3  4  1  0  0  0  0
  6  7  2  0  0  0  0
  7  9  1  0  0  0  0
  9 10  4  0  0  0  0
  9 17  4  0  0  0  0
  2 10  4  0  0  0  0
 11 12  4  0  0  0  0
 11 16  4  0  0  0  0
 12 13  4  0  0  0  0
 12 18  1  0  0  0  0
 13 14  4  0  0  0  0
 14 15  4  0  0  0  0
 15 16  4  0  0  0  0
 16 17  4  0  0  0  0
  5 17  1  0  0  0  0
  8 18  3  0  0  0  0
M  END
>  <pdb_header>
COMPND    XX01ZVNS2B-x1716_B_301_XX01ZVNS2B-x1291+B+301+1


$$$$
Zx1719a
  PyMOL3.0          3D                             0

 17 19  0  0  0  0  0  0  0  0999 V2000
   -5.7220    5.3400  -15.9590 C   0  0  0  0  0  0  0  0  0  0  0  0
   -4.4430    5.7340  -16.0530 N   0  0  0  0  0  0  0  0  0  0  0  0
   -7.5150    4.8070  -14.5960 C   0  0  0  0  0  0  0  0  0  0  0  0
   -6.2380    5.1890  -14.7430 N   0  0  0  0  0  0  0  0  0  0  0  0
   -7.8540    4.6660  -16.8950 C   0  0  0  0  0  0  0  0  0  0  0  0
   -8.3310    4.5290  -15.6230 N   0  0  0  0  0  0  0  0  0  0  0  0
   -8.6940    4.3900  -17.9930 C   0  0  0  0  0  0  0  0  0  0  0  0
   -7.8920    5.6550  -12.3540 N   0  0  0  0  0  0  0  0  0  0  0  0
   -8.2220    4.5280  -19.2650 C   0  0  0  0  0  0  0  0  0  0  0  0
   -6.8990    4.9370  -19.5070 C   0  0  0  0  0  0  0  0  0  0  0  0
   -6.0610    5.2080  -18.4710 C   0  0  0  0  0  0  0  0  0  0  0  0
   -6.5180    5.0840  -17.1350 C   0  0  0  0  0  0  0  0  0  0  0  0
   -8.0410    4.6290  -13.2130 C   0  0  0  0  0  0  0  0  0  0  0  0
   -8.6210    3.4240  -12.8540 C   0  0  0  0  0  0  0  0  0  0  0  0
   -9.0850    3.2690  -11.5620 C   0  0  0  0  0  0  0  0  0  0  0  0
   -8.9490    4.3090  -10.6730 C   0  0  0  0  0  0  0  0  0  0  0  0
   -8.3520    5.4740  -11.1060 C   0  0  0  0  0  0  0  0  0  0  0  0
  1  2  1  0  0  0  0
  1  4  4  0  0  0  0
  1 12  4  0  0  0  0
  3  4  4  0  0  0  0
  3  6  4  0  0  0  0
  3 13  1  0  0  0  0
  5  6  4  0  0  0  0
  5  7  4  0  0  0  0
  5 12  4  0  0  0  0
  7  9  4  0  0  0  0
  9 10  4  0  0  0  0
 10 11  4  0  0  0  0
 11 12  4  0  0  0  0
  8 13  4  0  0  0  0
 13 14  4  0  0  0  0
 14 15  4  0  0  0  0
 15 16  4  0  0  0  0
 16 17  4  0  0  0  0
  8 17  4  0  0  0  0
M  END
>  <pdb_header>
HEADER    ----                                    21-NOV-23   XXXX              
TITLE     ---                                                                   
REMARK   3
REMARK   3 REFINEMENT.
REMARK   3   PROGRAM     : REFMAC 5.8.0267   
REMARK   3   AUTHORS     : MURSHUDOV,SKUBAK,LEBEDEV,PANNU,
REMARK   3                 STEINER,NICHOLLS,WINN,LONG,VAGIN
REMARK   3
REMARK   3    REFINEMENT TARGET : MAXIMUM LIKELIHOOD
REMARK   3
REMARK   3  DATA USED IN REFINEMENT.
REMARK   3   RESOLUTION RANGE HIGH (ANGSTROMS) :   1.87
REMARK   3   RESOLUTION RANGE LOW  (ANGSTROMS) :  42.44
REMARK   3   DATA CUTOFF            (SIGMA(F)) : NONE
REMARK   3   COMPLETENESS FOR RANGE        (%) :  99.86
REMARK   3   NUMBER OF REFLECTIONS             :   16565
REMARK   3
REMARK   3  FIT TO DATA USED IN REFINEMENT.
REMARK   3   CROSS-VALIDATION METHOD          : THROUGHOUT
REMARK   3   FREE R VALUE TEST SET SELECTION  : RANDOM
REMARK   3   R VALUE     (WORKING + TEST SET) : 0.23058
REMARK   3   R VALUE            (WORKING SET) :  0.22861
REMARK   3   FREE R VALUE                     :  0.26771
REMARK   3   FREE R VALUE TEST SET SIZE   (%) :  4.9
REMARK   3   FREE R VALUE TEST SET COUNT      :   854
REMARK   3
REMARK   3  FIT IN THE HIGHEST RESOLUTION BIN.
REMARK   3   TOTAL NUMBER OF BINS USED           :      20
REMARK   3   BIN RESOLUTION RANGE HIGH           :    1.870
REMARK   3   BIN RESOLUTION RANGE LOW            :    1.919
REMARK   3   REFLECTION IN BIN     (WORKING SET) :     1164
REMARK   3   BIN COMPLETENESS (WORKING+TEST) (%) :    98.64
REMARK   3   BIN R VALUE           (WORKING SET) :    0.485
REMARK   3   BIN FREE R VALUE SET COUNT          :       73
REMARK   3   BIN FREE R VALUE                    :    0.545
REMARK   3
REMARK   3  NUMBER OF NON-HYDROGEN ATOMS USED IN REFINEMENT.
REMARK   3   ALL ATOMS                :     1808
REMARK   3
REMARK   3  B VALUES.
REMARK   3   FROM WILSON PLOT           (A**2) : NULL
REMARK   3   MEAN B VALUE      (OVERALL, A**2) :  56.870
REMARK   3   OVERALL ANISOTROPIC B VALUE.
REMARK   3    B11 (A**2) :     2.51
REMARK   3    B22 (A**2) :     2.51
REMARK   3    B33 (A**2) :    -5.03
REMARK   3    B12 (A**2) :     0.00
REMARK   3    B13 (A**2) :    -0.00
REMARK   3    B23 (A**2) :    -0.00
REMARK   3
REMARK   3  ESTIMATED OVERALL COORDINATE ERROR.
REMARK   3   ESU BASED ON R VALUE                            (A):   0.191
REMARK   3   ESU BASED ON FREE R VALUE                       (A):   0.168
REMARK   3   ESU BASED ON MAXIMUM LIKELIHOOD                 (A):   0.202
REMARK   3   ESU FOR B VALUES BASED ON MAXIMUM LIKELIHOOD (A**2):   7.660
REMARK   3
REMARK   3 CORRELATION COEFFICIENTS.
REMARK   3   CORRELATION COEFFICIENT FO-FC      :   0.968
REMARK   3   CORRELATION COEFFICIENT FO-FC FREE :   0.952
REMARK   3
REMARK   3  RMS DEVIATIONS FROM IDEAL VALUES        COUNT    RMS    WEIGHT
REMARK   3   BOND LENGTHS REFINED ATOMS        (A):  1893 ; 0.008 ; 0.013
REMARK   3   BOND LENGTHS OTHERS               (A):  1613 ; 0.001 ; 0.015
REMARK   3   BOND ANGLES REFINED ATOMS   (DEGREES):  2375 ; 1.546 ; 1.634
REMARK   3   BOND ANGLES OTHERS          (DEGREES):  3719 ; 1.209 ; 1.588
REMARK   3   TORSION ANGLES, PERIOD 1    (DEGREES):   229 ; 7.808 ; 5.000
REMARK   3   TORSION ANGLES, PERIOD 2    (DEGREES):    77 ;32.441 ;22.208
REMARK   3   TORSION ANGLES, PERIOD 3    (DEGREES):   274 ;16.024 ;15.000
REMARK   3   TORSION ANGLES, PERIOD 4    (DEGREES):    10 ;13.845 ;15.000
REMARK   3   CHIRAL-CENTER RESTRAINTS       (A**3):   213 ; 0.065 ; 0.200
REMARK   3   GENERAL PLANES REFINED ATOMS      (A):  2040 ; 0.008 ; 0.020
REMARK   3   GENERAL PLANES OTHERS             (A):   406 ; 0.001 ; 0.020
REMARK   3
REMARK   3  ISOTROPIC THERMAL FACTOR RESTRAINTS.     COUNT   RMS    WEIGHT
REMARK   3   MAIN-CHAIN BOND REFINED ATOMS  (A**2):   955 ; 4.408 ; 5.678
REMARK   3   MAIN-CHAIN BOND OTHER ATOMS    (A**2):   915 ; 4.472 ; 5.610
REMARK   3   MAIN-CHAIN ANGLE REFINED ATOMS (A**2):  1113 ; 6.313 ; 8.365
REMARK   3   MAIN-CHAIN ANGLE OTHER ATOMS (A**2)  :  1114 ; 6.325 ; 8.370
REMARK   3   SIDE-CHAIN BOND REFINED ATOMS  (A**2):   938 ; 5.000 ; 6.301
REMARK   3   SIDE-CHAIN BOND OTHER ATOMS  (A**2)  :   938 ; 5.000 ; 6.301
REMARK   3   SIDE-CHAIN ANGLE OTHER ATOMS (A**2)  :  1263 ; 7.431 ; 9.054
REMARK   3   LONG RANGE B REFINED ATOMS (A**2)    :  1940 ;11.106 ;63.430
REMARK   3   LONG RANGE B OTHER ATOMS (A**2)      :  1919 ;11.054 ;63.132
REMARK   3
REMARK   3  NCS RESTRAINTS STATISTICS
REMARK   3   NUMBER OF NCS GROUPS : NULL
REMARK   3
REMARK   3  TWIN DETAILS
REMARK   3   NUMBER OF TWIN DOMAINS  : NULL
REMARK   3
REMARK   3
REMARK   3  TLS DETAILS
REMARK   3   NUMBER OF TLS GROUPS  : NULL
REMARK   3
REMARK   3
REMARK   3  BULK SOLVENT MODELLING.
REMARK   3   METHOD USED :  MASK
REMARK   3   PARAMETERS FOR MASK CALCULATION
REMARK   3   VDW PROBE RADIUS   :   1.20
REMARK   3   ION PROBE RADIUS   :   0.80
REMARK   3   SHRINKAGE RADIUS   :   0.80
REMARK   3
REMARK   3  OTHER REFINEMENT REMARKS:
REMARK   3  HYDROGENS HAVE BEEN ADDED IN THE RIDING POSITIONS
REMARK   3  U VALUES      : REFINED INDIVIDUALLY
REMARK   3
CRYST1   42.400   42.400  216.910  90.00  90.00  90.00 P 43 2 2                 


$$$$
Zx1719a_ligand
  PyMOL3.0          3D                             0

 17 19  0  0  0  0  0  0  0  0999 V2000
   -5.7220    5.3400  -15.9590 C   0  0  0  0  0  0  0  0  0  0  0  0
   -4.4430    5.7340  -16.0530 N   0  0  0  0  0  0  0  0  0  0  0  0
   -7.5150    4.8070  -14.5960 C   0  0  0  0  0  0  0  0  0  0  0  0
   -6.2380    5.1890  -14.7430 N   0  0  0  0  0  0  0  0  0  0  0  0
   -7.8540    4.6660  -16.8950 C   0  0  0  0  0  0  0  0  0  0  0  0
   -8.3310    4.5290  -15.6230 N   0  0  0  0  0  0  0  0  0  0  0  0
   -8.6940    4.3900  -17.9930 C   0  0  0  0  0  0  0  0  0  0  0  0
   -7.8920    5.6550  -12.3540 N   0  0  0  0  0  0  0  0  0  0  0  0
   -8.2220    4.5280  -19.2650 C   0  0  0  0  0  0  0  0  0  0  0  0
   -6.8990    4.9370  -19.5070 C   0  0  0  0  0  0  0  0  0  0  0  0
   -6.0610    5.2080  -18.4710 C   0  0  0  0  0  0  0  0  0  0  0  0
   -6.5180    5.0840  -17.1350 C   0  0  0  0  0  0  0  0  0  0  0  0
   -8.0410    4.6290  -13.2130 C   0  0  0  0  0  0  0  0  0  0  0  0
   -8.6210    3.4240  -12.8540 C   0  0  0  0  0  0  0  0  0  0  0  0
   -9.0850    3.2690  -11.5620 C   0  0  0  0  0  0  0  0  0  0  0  0
   -8.9490    4.3090  -10.6730 C   0  0  0  0  0  0  0  0  0  0  0  0
   -8.3520    5.4740  -11.1060 C   0  0  0  0  0  0  0  0  0  0  0  0
  1  4  4  0  0  0  0
  1 12  4  0  0  0  0
  1  2  1  0  0  0  0
  3  6  4  0  0  0  0
  3 13  1  0  0  0  0
  3  4  4  0  0  0  0
  5  7  4  0  0  0  0
  5 12  4  0  0  0  0
  5  6  4  0  0  0  0
  7  9  4  0  0  0  0
  9 10  4  0  0  0  0
 10 11  4  0  0  0  0
 11 12  4  0  0  0  0
  8 13  4  0  0  0  0
 13 14  4  0  0  0  0
 14 15  4  0  0  0  0
 15 16  4  0  0  0  0
 16 17  4  0  0  0  0
  8 17  4  0  0  0  0
M  END
>  <pdb_header>
COMPND    XX01ZVNS2B-x1719_B_301_XX01ZVNS2B-x1291+B+301+1


$$$$
Zx1726a
  PyMOL3.0          3D                             0

 24 25  0  0  0  0  0  0  0  0999 V2000
   -4.9590    6.2120  -11.4950 C   0  0  0  0  0  0  0  0  0  0  0  0
   -6.7910    4.6460  -11.6270 N   0  0  0  0  0  0  0  0  0  0  0  0
   -4.8590    4.1190  -12.6360 O   0  0  0  0  0  0  0  0  0  0  0  0
   -5.5250    4.9090  -11.9670 C   0  0  0  0  0  0  0  0  0  0  0  0
   -9.7940    1.2980   -8.4520 N   0  0  0  0  0  0  0  0  0  0  0  0
   -7.6870    1.9130  -13.7520 O   0  0  0  0  0  0  0  0  0  0  0  0
   -7.3820    3.3300  -11.8210 C   0  0  0  0  0  0  0  0  0  0  0  0
   -8.1020    4.1310  -14.0220 N   0  0  0  0  0  0  0  0  0  0  0  0
   -8.6060    3.1610  -10.9220 C   0  0  0  0  0  0  0  0  0  0  0  0
   -5.8740    4.8540  -15.3900 N   0  0  0  0  0  0  0  0  0  0  0  0
   -8.2660    3.0270   -9.4450 C   0  0  0  0  0  0  0  0  0  0  0  0
   -9.4800    2.7240   -8.5820 C   0  0  0  0  0  0  0  0  0  0  0  0
   -7.7300    3.0520  -13.2990 C   0  0  0  0  0  0  0  0  0  0  0  0
   -8.2060    4.2290  -15.4170 C   0  0  0  0  0  0  0  0  0  0  0  0
   -9.3570    3.9850  -16.1300 C   0  0  0  0  0  0  0  0  0  0  0  0
   -9.3740    4.1050  -17.5280 C   0  0  0  0  0  0  0  0  0  0  0  0
   -8.2550    4.4700  -18.2120 C   0  0  0  0  0  0  0  0  0  0  0  0
   -7.0460    4.7350  -17.5240 C   0  0  0  0  0  0  0  0  0  0  0  0
   -5.8370    5.1220  -18.1610 C   0  0  0  0  0  0  0  0  0  0  0  0
   -4.7190    5.3530  -17.4270 C   0  0  0  0  0  0  0  0  0  0  0  0
   -4.7670    5.2060  -16.0240 C   0  0  0  0  0  0  0  0  0  0  0  0
   -7.0120    4.6150  -16.1080 C   0  0  0  0  0  0  0  0  0  0  0  0
   -3.5440    5.4680  -15.1970 C   0  0  0  0  0  0  0  0  0  0  0  0
   -5.7670    5.3000  -19.8920 Cl  0  0  0  0  0  0  0  0  0  0  0  0
  1  4  1  0  0  0  0
  2  4  1  0  0  0  0
  3  4  2  0  0  0  0
  2  7  1  0  0  0  0
  7  9  1  0  0  0  0
  7 13  1  0  0  0  0
  9 11  1  0  0  0  0
 11 12  1  0  0  0  0
  5 12  1  0  0  0  0
  6 13  2  0  0  0  0
  8 13  1  0  0  0  0
  8 14  1  0  0  0  0
 14 15  4  0  0  0  0
 15 16  4  0  0  0  0
 16 17  4  0  0  0  0
 17 18  4  0  0  0  0
 18 19  4  0  0  0  0
 18 22  4  0  0  0  0
 19 20  4  0  0  0  0
 19 24  1  0  0  0  0
 20 21  4  0  0  0  0
 10 21  4  0  0  0  0
 21 23  1  0  0  0  0
 10 22  4  0  0  0  0
 14 22  4  0  0  0  0
M  END
>  <pdb_header>
HEADER    ----                                    09-JAN-24   XXXX              
TITLE     ---                                                                   
REMARK   3
REMARK   3 REFINEMENT.
REMARK   3   PROGRAM     : REFMAC 5.8.0267   
REMARK   3   AUTHORS     : MURSHUDOV,SKUBAK,LEBEDEV,PANNU,
REMARK   3                 STEINER,NICHOLLS,WINN,LONG,VAGIN
REMARK   3
REMARK   3    REFINEMENT TARGET : MAXIMUM LIKELIHOOD
REMARK   3
REMARK   3  DATA USED IN REFINEMENT.
REMARK   3   RESOLUTION RANGE HIGH (ANGSTROMS) :   2.04
REMARK   3   RESOLUTION RANGE LOW  (ANGSTROMS) :  54.24
REMARK   3   DATA CUTOFF            (SIGMA(F)) : NONE
REMARK   3   COMPLETENESS FOR RANGE        (%) :  93.31
REMARK   3   NUMBER OF REFLECTIONS             :   12204
REMARK   3
REMARK   3  FIT TO DATA USED IN REFINEMENT.
REMARK   3   CROSS-VALIDATION METHOD          : THROUGHOUT
REMARK   3   FREE R VALUE TEST SET SELECTION  : RANDOM
REMARK   3   R VALUE     (WORKING + TEST SET) : 0.24983
REMARK   3   R VALUE            (WORKING SET) :  0.24576
REMARK   3   FREE R VALUE                     :  0.32897
REMARK   3   FREE R VALUE TEST SET SIZE   (%) :  4.8
REMARK   3   FREE R VALUE TEST SET COUNT      :   609
REMARK   3
REMARK   3  FIT IN THE HIGHEST RESOLUTION BIN.
REMARK   3   TOTAL NUMBER OF BINS USED           :      20
REMARK   3   BIN RESOLUTION RANGE HIGH           :    2.039
REMARK   3   BIN RESOLUTION RANGE LOW            :    2.091
REMARK   3   REFLECTION IN BIN     (WORKING SET) :      463
REMARK   3   BIN COMPLETENESS (WORKING+TEST) (%) :    50.00
REMARK   3   BIN R VALUE           (WORKING SET) :    0.530
REMARK   3   BIN FREE R VALUE SET COUNT          :       18
REMARK   3   BIN FREE R VALUE                    :    0.568
REMARK   3
REMARK   3  NUMBER OF NON-HYDROGEN ATOMS USED IN REFINEMENT.
REMARK   3   ALL ATOMS                :     2040
REMARK   3
REMARK   3  B VALUES.
REMARK   3   FROM WILSON PLOT           (A**2) : NULL
REMARK   3   MEAN B VALUE      (OVERALL, A**2) :  47.907
REMARK   3   OVERALL ANISOTROPIC B VALUE.
REMARK   3    B11 (A**2) :     2.73
REMARK   3    B22 (A**2) :     2.73
REMARK   3    B33 (A**2) :    -5.45
REMARK   3    B12 (A**2) :    -0.00
REMARK   3    B13 (A**2) :    -0.00
REMARK   3    B23 (A**2) :    -0.00
REMARK   3
REMARK   3  ESTIMATED OVERALL COORDINATE ERROR.
REMARK   3   ESU BASED ON R VALUE                            (A):   0.370
REMARK   3   ESU BASED ON FREE R VALUE                       (A):   0.285
REMARK   3   ESU BASED ON MAXIMUM LIKELIHOOD                 (A):   0.383
REMARK   3   ESU FOR B VALUES BASED ON MAXIMUM LIKELIHOOD (A**2):  17.268
REMARK   3
REMARK   3 CORRELATION COEFFICIENTS.
REMARK   3   CORRELATION COEFFICIENT FO-FC      :   0.954
REMARK   3   CORRELATION COEFFICIENT FO-FC FREE :   0.902
REMARK   3
REMARK   3  RMS DEVIATIONS FROM IDEAL VALUES        COUNT    RMS    WEIGHT
REMARK   3   BOND LENGTHS REFINED ATOMS        (A):  2309 ; 0.005 ; 0.014
REMARK   3   BOND LENGTHS OTHERS               (A):  1770 ; 0.001 ; 0.015
REMARK   3   BOND ANGLES REFINED ATOMS   (DEGREES):  2691 ; 1.339 ; 1.634
REMARK   3   BOND ANGLES OTHERS          (DEGREES):  4098 ; 1.162 ; 1.585
REMARK   3   TORSION ANGLES, PERIOD 1    (DEGREES):   268 ; 7.360 ; 5.000
REMARK   3   TORSION ANGLES, PERIOD 2    (DEGREES):    91 ;31.916 ;22.637
REMARK   3   TORSION ANGLES, PERIOD 3    (DEGREES):   292 ;16.288 ;15.000
REMARK   3   TORSION ANGLES, PERIOD 4    (DEGREES):    10 ;14.600 ;15.000
REMARK   3   CHIRAL-CENTER RESTRAINTS       (A**3):   236 ; 0.045 ; 0.200
REMARK   3   GENERAL PLANES REFINED ATOMS      (A):  2385 ; 0.005 ; 0.020
REMARK   3   GENERAL PLANES OTHERS             (A):   449 ; 0.002 ; 0.020
REMARK   3
REMARK   3  ISOTROPIC THERMAL FACTOR RESTRAINTS.     COUNT   RMS    WEIGHT
REMARK   3   MAIN-CHAIN BOND REFINED ATOMS  (A**2):  1178 ; 2.699 ; 4.861
REMARK   3   MAIN-CHAIN BOND OTHER ATOMS    (A**2):  1123 ; 2.765 ; 4.797
REMARK   3   MAIN-CHAIN ANGLE REFINED ATOMS (A**2):  1284 ; 4.646 ; 7.175
REMARK   3   MAIN-CHAIN ANGLE OTHER ATOMS (A**2)  :  1285 ; 4.644 ; 7.180
REMARK   3   SIDE-CHAIN BOND REFINED ATOMS  (A**2):  1131 ; 2.698 ; 5.066
REMARK   3   SIDE-CHAIN BOND OTHER ATOMS  (A**2)  :  1132 ; 2.697 ; 5.068
REMARK   3   SIDE-CHAIN ANGLE OTHER ATOMS (A**2)  :  1408 ; 4.722 ; 7.494
REMARK   3   LONG RANGE B REFINED ATOMS (A**2)    :  2226 ; 9.510 ;53.308
REMARK   3   LONG RANGE B OTHER ATOMS (A**2)      :  2199 ; 9.213 ;53.175
REMARK   3
REMARK   3  NCS RESTRAINTS STATISTICS
REMARK   3   NUMBER OF NCS GROUPS : NULL
REMARK   3
REMARK   3  TWIN DETAILS
REMARK   3   NUMBER OF TWIN DOMAINS  : NULL
REMARK   3
REMARK   3
REMARK   3  TLS DETAILS
REMARK   3   NUMBER OF TLS GROUPS  : NULL
REMARK   3
REMARK   3
REMARK   3  BULK SOLVENT MODELLING.
REMARK   3   METHOD USED :  MASK
REMARK   3   PARAMETERS FOR MASK CALCULATION
REMARK   3   VDW PROBE RADIUS   :   1.20
REMARK   3   ION PROBE RADIUS   :   0.80
REMARK   3   SHRINKAGE RADIUS   :   0.80
REMARK   3
REMARK   3  OTHER REFINEMENT REMARKS:
REMARK   3  HYDROGENS HAVE BEEN ADDED IN THE RIDING POSITIONS
REMARK   3  U VALUES      : REFINED INDIVIDUALLY
REMARK   3
CRYST1   42.644   42.644  216.945  90.00  90.00  90.00 P 43 2 2                 


$$$$
Zx1726a_ligand
  PyMOL3.0          3D                             0

 24 25  0  0  0  0  0  0  0  0999 V2000
   -5.7670    5.3000  -19.8920 Cl  0  0  0  0  0  0  0  0  0  0  0  0
   -4.9590    6.2120  -11.4950 C   0  0  0  0  0  0  0  0  0  0  0  0
   -6.7910    4.6460  -11.6270 N   0  0  0  0  0  0  0  0  0  0  0  0
   -4.8590    4.1190  -12.6360 O   0  0  0  0  0  0  0  0  0  0  0  0
   -5.5250    4.9090  -11.9670 C   0  0  0  0  0  0  0  0  0  0  0  0
   -9.7940    1.2980   -8.4520 N   0  0  0  0  0  0  0  0  0  0  0  0
   -7.6870    1.9130  -13.7520 O   0  0  0  0  0  0  0  0  0  0  0  0
   -7.3820    3.3300  -11.8210 C   0  0  0  0  0  0  0  0  0  0  0  0
   -8.1020    4.1310  -14.0220 N   0  0  0  0  0  0  0  0  0  0  0  0
   -8.6060    3.1610  -10.9220 C   0  0  0  0  0  0  0  0  0  0  0  0
   -5.8740    4.8540  -15.3900 N   0  0  0  0  0  0  0  0  0  0  0  0
   -8.2660    3.0270   -9.4450 C   0  0  0  0  0  0  0  0  0  0  0  0
   -9.4800    2.7240   -8.5820 C   0  0  0  0  0  0  0  0  0  0  0  0
   -7.7300    3.0520  -13.2990 C   0  0  0  0  0  0  0  0  0  0  0  0
   -8.2060    4.2290  -15.4170 C   0  0  0  0  0  0  0  0  0  0  0  0
   -9.3570    3.9850  -16.1300 C   0  0  0  0  0  0  0  0  0  0  0  0
   -9.3740    4.1050  -17.5280 C   0  0  0  0  0  0  0  0  0  0  0  0
   -8.2550    4.4700  -18.2120 C   0  0  0  0  0  0  0  0  0  0  0  0
   -7.0460    4.7350  -17.5240 C   0  0  0  0  0  0  0  0  0  0  0  0
   -5.8370    5.1220  -18.1610 C   0  0  0  0  0  0  0  0  0  0  0  0
   -4.7190    5.3530  -17.4270 C   0  0  0  0  0  0  0  0  0  0  0  0
   -4.7670    5.2060  -16.0240 C   0  0  0  0  0  0  0  0  0  0  0  0
   -7.0120    4.6150  -16.1080 C   0  0  0  0  0  0  0  0  0  0  0  0
   -3.5440    5.4680  -15.1970 C   0  0  0  0  0  0  0  0  0  0  0  0
  2  5  1  0  0  0  0
  3  8  1  0  0  0  0
  3  5  1  0  0  0  0
  4  5  2  0  0  0  0
  8 10  1  0  0  0  0
  8 14  1  0  0  0  0
  9 15  1  0  0  0  0
 10 12  1  0  0  0  0
 11 23  4  0  0  0  0
 12 13  1  0  0  0  0
  6 13  1  0  0  0  0
  7 14  2  0  0  0  0
  9 14  1  0  0  0  0
 15 16  4  0  0  0  0
 15 23  4  0  0  0  0
 16 17  4  0  0  0  0
 17 18  4  0  0  0  0
 18 19  4  0  0  0  0
 19 20  4  0  0  0  0
 19 23  4  0  0  0  0
  1 20  1  0  0  0  0
 20 21  4  0  0  0  0
 21 22  4  0  0  0  0
 11 22  4  0  0  0  0
 22 24  1  0  0  0  0
M  END
>  <pdb_header>
COMPND    XX01ZVNS2B-x1726_B_301_XX01ZVNS2B-x1291+B+301+1


$$$$
Zx1727a
  PyMOL3.0          3D                             0

 25 26  0  0  0  0  0  0  0  0999 V2000
   -8.5420    9.2780  -13.0290 C   0  0  0  0  0  0  0  0  0  0  0  0
   -8.9950    7.0970  -12.1220 N   0  0  0  0  0  0  0  0  0  0  0  0
  -10.5190    8.0160  -13.4720 O   0  0  0  0  0  0  0  0  0  0  0  0
   -9.4440    8.0960  -12.8820 C   0  0  0  0  0  0  0  0  0  0  0  0
   -9.3490    1.9290   -8.4760 N   0  3  0  0  0  0  0  0  0  0  0  0
   -8.3170    4.1360  -13.4960 O   0  0  0  0  0  0  0  0  0  0  0  0
   -7.8410    6.2890  -12.4890 C   0  0  0  0  0  0  0  0  0  0  0  0
   -8.3700    5.9570  -14.8450 N   0  0  0  0  0  0  0  0  0  0  0  0
   -7.2890    5.5240  -11.2840 C   0  0  0  0  0  0  0  0  0  0  0  0
   -6.0120    6.2010  -16.0980 N   0  0  0  0  0  0  0  0  0  0  0  0
   -8.3460    5.0250  -10.3010 C   0  0  0  0  0  0  0  0  0  0  0  0
   -8.4270    3.5170  -10.1510 C   0  0  0  0  0  0  0  0  0  0  0  0
   -8.4360    3.0720   -8.7050 C   0  0  0  0  0  0  0  0  0  0  0  0
   -8.1880    5.3420  -13.6580 C   0  0  0  0  0  0  0  0  0  0  0  0
   -8.2920    5.4380  -16.1440 C   0  0  0  0  0  0  0  0  0  0  0  0
   -9.3350    4.8560  -16.8290 C   0  0  0  0  0  0  0  0  0  0  0  0
   -9.1640    4.4070  -18.1500 C   0  0  0  0  0  0  0  0  0  0  0  0
   -7.9670    4.5480  -18.7860 C   0  0  0  0  0  0  0  0  0  0  0  0
   -6.8700    5.1540  -18.1270 C   0  0  0  0  0  0  0  0  0  0  0  0
   -5.5880    5.3380  -18.7080 C   0  0  0  0  0  0  0  0  0  0  0  0
   -4.5880    5.9260  -18.0000 C   0  0  0  0  0  0  0  0  0  0  0  0
   -4.8330    6.3570  -16.6790 C   0  0  0  0  0  0  0  0  0  0  0  0
   -7.0290    5.6120  -16.7920 C   0  0  0  0  0  0  0  0  0  0  0  0
   -3.7510    7.0140  -15.8770 C   0  0  0  0  0  0  0  0  0  0  0  0
   -5.2850    4.8140  -20.3380 Cl  0  0  0  0  0  0  0  0  0  0  0  0
  1  4  1  0  0  0  0
  2  4  1  0  0  0  0
  3  4  2  0  0  0  0
  2  7  1  0  0  0  0
  7  9  1  0  0  0  0
  7 14  1  0  0  0  0
  9 11  1  0  0  0  0
 11 12  1  0  0  0  0
 12 13  1  0  0  0  0
  5 13  1  0  0  0  0
  6 14  2  0  0  0  0
  8 14  1  0  0  0  0
  8 15  1  0  0  0  0
 15 16  4  0  0  0  0
 16 17  4  0  0  0  0
 17 18  4  0  0  0  0
 18 19  4  0  0  0  0
 19 20  4  0  0  0  0
 19 23  4  0  0  0  0
 20 21  4  0  0  0  0
 20 25  1  0  0  0  0
 21 22  4  0  0  0  0
 10 22  4  0  0  0  0
 22 24  1  0  0  0  0
 10 23  4  0  0  0  0
 15 23  4  0  0  0  0
M  END
>  <pdb_header>
HEADER    ----                                    09-JAN-24   XXXX              
TITLE     ---                                                                   
REMARK   3
REMARK   3 REFINEMENT.
REMARK   3   PROGRAM     : REFMAC 5.8.0267   
REMARK   3   AUTHORS     : MURSHUDOV,SKUBAK,LEBEDEV,PANNU,
REMARK   3                 STEINER,NICHOLLS,WINN,LONG,VAGIN
REMARK   3
REMARK   3    REFINEMENT TARGET : MAXIMUM LIKELIHOOD
REMARK   3
REMARK   3  DATA USED IN REFINEMENT.
REMARK   3   RESOLUTION RANGE HIGH (ANGSTROMS) :   1.79
REMARK   3   RESOLUTION RANGE LOW  (ANGSTROMS) :  54.11
REMARK   3   DATA CUTOFF            (SIGMA(F)) : NONE
REMARK   3   COMPLETENESS FOR RANGE        (%) :  85.74
REMARK   3   NUMBER OF REFLECTIONS             :   16120
REMARK   3
REMARK   3  FIT TO DATA USED IN REFINEMENT.
REMARK   3   CROSS-VALIDATION METHOD          : THROUGHOUT
REMARK   3   FREE R VALUE TEST SET SELECTION  : RANDOM
REMARK   3   R VALUE     (WORKING + TEST SET) : 0.24026
REMARK   3   R VALUE            (WORKING SET) :  0.23736
REMARK   3   FREE R VALUE                     :  0.29482
REMARK   3   FREE R VALUE TEST SET SIZE   (%) :  4.9
REMARK   3   FREE R VALUE TEST SET COUNT      :   829
REMARK   3
REMARK   3  FIT IN THE HIGHEST RESOLUTION BIN.
REMARK   3   TOTAL NUMBER OF BINS USED           :      20
REMARK   3   BIN RESOLUTION RANGE HIGH           :    1.791
REMARK   3   BIN RESOLUTION RANGE LOW            :    1.837
REMARK   3   REFLECTION IN BIN     (WORKING SET) :       78
REMARK   3   BIN COMPLETENESS (WORKING+TEST) (%) :     5.88
REMARK   3   BIN R VALUE           (WORKING SET) :    0.445
REMARK   3   BIN FREE R VALUE SET COUNT          :        5
REMARK   3   BIN FREE R VALUE                    :    0.379
REMARK   3
REMARK   3  NUMBER OF NON-HYDROGEN ATOMS USED IN REFINEMENT.
REMARK   3   ALL ATOMS                :     1781
REMARK   3
REMARK   3  B VALUES.
REMARK   3   FROM WILSON PLOT           (A**2) : NULL
REMARK   3   MEAN B VALUE      (OVERALL, A**2) :  51.225
REMARK   3   OVERALL ANISOTROPIC B VALUE.
REMARK   3    B11 (A**2) :     1.30
REMARK   3    B22 (A**2) :     1.30
REMARK   3    B33 (A**2) :    -2.60
REMARK   3    B12 (A**2) :    -0.00
REMARK   3    B13 (A**2) :     0.00
REMARK   3    B23 (A**2) :     0.00
REMARK   3
REMARK   3  ESTIMATED OVERALL COORDINATE ERROR.
REMARK   3   ESU BASED ON R VALUE                            (A):   0.202
REMARK   3   ESU BASED ON FREE R VALUE                       (A):   0.188
REMARK   3   ESU BASED ON MAXIMUM LIKELIHOOD                 (A):   0.264
REMARK   3   ESU FOR B VALUES BASED ON MAXIMUM LIKELIHOOD (A**2):   9.995
REMARK   3
REMARK   3 CORRELATION COEFFICIENTS.
REMARK   3   CORRELATION COEFFICIENT FO-FC      :   0.960
REMARK   3   CORRELATION COEFFICIENT FO-FC FREE :   0.937
REMARK   3
REMARK   3  RMS DEVIATIONS FROM IDEAL VALUES        COUNT    RMS    WEIGHT
REMARK   3   BOND LENGTHS REFINED ATOMS        (A):  1852 ; 0.008 ; 0.013
REMARK   3   BOND LENGTHS OTHERS               (A):  1614 ; 0.001 ; 0.015
REMARK   3   BOND ANGLES REFINED ATOMS   (DEGREES):  2357 ; 1.562 ; 1.635
REMARK   3   BOND ANGLES OTHERS          (DEGREES):  3715 ; 1.187 ; 1.587
REMARK   3   TORSION ANGLES, PERIOD 1    (DEGREES):   223 ; 8.318 ; 5.000
REMARK   3   TORSION ANGLES, PERIOD 2    (DEGREES):    79 ;36.869 ;21.899
REMARK   3   TORSION ANGLES, PERIOD 3    (DEGREES):   262 ;17.093 ;15.000
REMARK   3   TORSION ANGLES, PERIOD 4    (DEGREES):    10 ;22.050 ;15.000
REMARK   3   CHIRAL-CENTER RESTRAINTS       (A**3):   212 ; 0.066 ; 0.200
REMARK   3   GENERAL PLANES REFINED ATOMS      (A):  2010 ; 0.007 ; 0.020
REMARK   3   GENERAL PLANES OTHERS             (A):   392 ; 0.001 ; 0.020
REMARK   3
REMARK   3  ISOTROPIC THERMAL FACTOR RESTRAINTS.     COUNT   RMS    WEIGHT
REMARK   3   MAIN-CHAIN BOND REFINED ATOMS  (A**2):   908 ; 3.977 ; 5.065
REMARK   3   MAIN-CHAIN BOND OTHER ATOMS    (A**2):   892 ; 4.000 ; 5.044
REMARK   3   MAIN-CHAIN ANGLE REFINED ATOMS (A**2):  1089 ; 5.964 ; 7.542
REMARK   3   MAIN-CHAIN ANGLE OTHER ATOMS (A**2)  :  1090 ; 5.966 ; 7.546
REMARK   3   SIDE-CHAIN BOND REFINED ATOMS  (A**2):   944 ; 4.230 ; 5.668
REMARK   3   SIDE-CHAIN BOND OTHER ATOMS  (A**2)  :   945 ; 4.228 ; 5.673
REMARK   3   SIDE-CHAIN ANGLE OTHER ATOMS (A**2)  :  1269 ; 6.610 ; 8.207
REMARK   3   LONG RANGE B REFINED ATOMS (A**2)    :  1992 ;12.784 ;59.420
REMARK   3   LONG RANGE B OTHER ATOMS (A**2)      :  1971 ;12.467 ;59.105
REMARK   3
REMARK   3  NCS RESTRAINTS STATISTICS
REMARK   3   NUMBER OF NCS GROUPS : NULL
REMARK   3
REMARK   3  TWIN DETAILS
REMARK   3   NUMBER OF TWIN DOMAINS  : NULL
REMARK   3
REMARK   3
REMARK   3  TLS DETAILS
REMARK   3   NUMBER OF TLS GROUPS  : NULL
REMARK   3
REMARK   3
REMARK   3  BULK SOLVENT MODELLING.
REMARK   3   METHOD USED :  MASK
REMARK   3   PARAMETERS FOR MASK CALCULATION
REMARK   3   VDW PROBE RADIUS   :   1.20
REMARK   3   ION PROBE RADIUS   :   0.80
REMARK   3   SHRINKAGE RADIUS   :   0.80
REMARK   3
REMARK   3  OTHER REFINEMENT REMARKS:
REMARK   3  HYDROGENS HAVE BEEN ADDED IN THE RIDING POSITIONS
REMARK   3  U VALUES      : REFINED INDIVIDUALLY
REMARK   3
CRYST1   42.439   42.439  216.443  90.00  90.00  90.00 P 43 2 2                 


$$$$
Zx1727a_ligand
  PyMOL3.0          3D                             0

 25 26  0  0  0  0  0  0  0  0999 V2000
   -5.2850    4.8140  -20.3380 Cl  0  0  0  0  0  0  0  0  0  0  0  0
   -8.5420    9.2780  -13.0290 C   0  0  0  0  0  0  0  0  0  0  0  0
   -8.9950    7.0970  -12.1220 N   0  0  0  0  0  0  0  0  0  0  0  0
  -10.5190    8.0160  -13.4720 O   0  0  0  0  0  0  0  0  0  0  0  0
   -9.4440    8.0960  -12.8820 C   0  0  0  0  0  0  0  0  0  0  0  0
   -9.3490    1.9290   -8.4760 N   0  3  0  0  0  0  0  0  0  0  0  0
   -8.3170    4.1360  -13.4960 O   0  0  0  0  0  0  0  0  0  0  0  0
   -7.8410    6.2890  -12.4890 C   0  0  0  0  0  0  0  0  0  0  0  0
   -8.3700    5.9570  -14.8450 N   0  0  0  0  0  0  0  0  0  0  0  0
   -7.2890    5.5240  -11.2840 C   0  0  0  0  0  0  0  0  0  0  0  0
   -6.0120    6.2010  -16.0980 N   0  0  0  0  0  0  0  0  0  0  0  0
   -8.3460    5.0250  -10.3010 C   0  0  0  0  0  0  0  0  0  0  0  0
   -8.4270    3.5170  -10.1510 C   0  0  0  0  0  0  0  0  0  0  0  0
   -8.4360    3.0720   -8.7050 C   0  0  0  0  0  0  0  0  0  0  0  0
   -8.1880    5.3420  -13.6580 C   0  0  0  0  0  0  0  0  0  0  0  0
   -8.2920    5.4380  -16.1440 C   0  0  0  0  0  0  0  0  0  0  0  0
   -9.3350    4.8560  -16.8290 C   0  0  0  0  0  0  0  0  0  0  0  0
   -9.1640    4.4070  -18.1500 C   0  0  0  0  0  0  0  0  0  0  0  0
   -7.9670    4.5480  -18.7860 C   0  0  0  0  0  0  0  0  0  0  0  0
   -6.8700    5.1540  -18.1270 C   0  0  0  0  0  0  0  0  0  0  0  0
   -5.5880    5.3380  -18.7080 C   0  0  0  0  0  0  0  0  0  0  0  0
   -4.5880    5.9260  -18.0000 C   0  0  0  0  0  0  0  0  0  0  0  0
   -4.8330    6.3570  -16.6790 C   0  0  0  0  0  0  0  0  0  0  0  0
   -7.0290    5.6120  -16.7920 C   0  0  0  0  0  0  0  0  0  0  0  0
   -3.7510    7.0140  -15.8770 C   0  0  0  0  0  0  0  0  0  0  0  0
  2  5  1  0  0  0  0
  3  8  1  0  0  0  0
  3  5  1  0  0  0  0
  4  5  2  0  0  0  0
  8 10  1  0  0  0  0
  8 15  1  0  0  0  0
  9 16  1  0  0  0  0
 10 12  1  0  0  0  0
 11 24  4  0  0  0  0
 12 13  1  0  0  0  0
 13 14  1  0  0  0  0
  6 14  1  0  0  0  0
  7 15  2  0  0  0  0
  9 15  1  0  0  0  0
 16 17  4  0  0  0  0
 16 24  4  0  0  0  0
 17 18  4  0  0  0  0
 18 19  4  0  0  0  0
 19 20  4  0  0  0  0
 20 21  4  0  0  0  0
 20 24  4  0  0  0  0
  1 21  1  0  0  0  0
 21 22  4  0  0  0  0
 22 23  4  0  0  0  0
 11 23  4  0  0  0  0
 23 25  1  0  0  0  0
M  END
>  <pdb_header>
COMPND    XX01ZVNS2B-x1727_B_301_XX01ZVNS2B-x1291+B+301+1


$$$$
Zx1728a
  PyMOL3.0          3D                             0

 22 23  0  0  0  0  0  0  0  0999 V2000
   -5.2330    4.0300  -13.1540 C   0  0  0  0  0  0  0  0  0  0  0  0
   -6.8520    2.2700  -12.7940 N   0  0  0  0  0  0  0  0  0  0  0  0
   -5.2910    2.6270  -11.2320 O   0  0  0  0  0  0  0  0  0  0  0  0
   -5.7790    2.9150  -12.3220 C   0  0  0  0  0  0  0  0  0  0  0  0
   -9.1630    1.3490   -8.6040 N   0  0  0  0  0  0  0  0  0  0  0  0
   -7.9400    4.9850  -14.0910 O   0  0  0  0  0  0  0  0  0  0  0  0
   -8.1650    2.8880  -12.8990 C   0  0  0  0  0  0  0  0  0  0  0  0
   -8.8020    3.2210  -15.2260 N   0  0  0  0  0  0  0  0  0  0  0  0
   -8.5400    3.5940  -11.5920 C   0  0  0  0  0  0  0  0  0  0  0  0
   -6.6400    4.2280  -16.5180 N   0  0  0  0  0  0  0  0  0  0  0  0
   -9.4010    2.7340  -10.6770 C   0  0  0  0  0  0  0  0  0  0  0  0
   -8.9040    2.6420   -9.2430 C   0  0  0  0  0  0  0  0  0  0  0  0
   -8.2890    3.8130  -14.1260 C   0  0  0  0  0  0  0  0  0  0  0  0
   -9.0090    3.7800  -16.4930 C   0  0  0  0  0  0  0  0  0  0  0  0
  -10.2270    3.8320  -17.1240 C   0  0  0  0  0  0  0  0  0  0  0  0
  -10.3470    4.3950  -18.4030 C   0  0  0  0  0  0  0  0  0  0  0  0
   -9.2580    4.8970  -19.0510 C   0  0  0  0  0  0  0  0  0  0  0  0
   -7.9850    4.8560  -18.4430 C   0  0  0  0  0  0  0  0  0  0  0  0
   -6.8300    5.3600  -19.0780 C   0  0  0  0  0  0  0  0  0  0  0  0
   -5.6350    5.2890  -18.4360 C   0  0  0  0  0  0  0  0  0  0  0  0
   -5.5890    4.7100  -17.1530 C   0  0  0  0  0  0  0  0  0  0  0  0
   -7.8490    4.2940  -17.1560 C   0  0  0  0  0  0  0  0  0  0  0  0
  1  4  1  0  0  0  0
  2  4  1  0  0  0  0
  3  4  2  0  0  0  0
  2  7  1  0  0  0  0
  7  9  1  0  0  0  0
  7 13  1  0  0  0  0
  9 11  1  0  0  0  0
 11 12  1  0  0  0  0
  5 12  1  0  0  0  0
  6 13  2  0  0  0  0
  8 13  1  0  0  0  0
  8 14  1  0  0  0  0
 14 15  4  0  0  0  0
 15 16  4  0  0  0  0
 16 17  4  0  0  0  0
 17 18  4  0  0  0  0
 18 19  4  0  0  0  0
 18 22  4  0  0  0  0
 19 20  4  0  0  0  0
 20 21  4  0  0  0  0
 10 21  4  0  0  0  0
 10 22  4  0  0  0  0
 14 22  4  0  0  0  0
M  END
>  <pdb_header>
HEADER    ----                                    09-JAN-24   XXXX              
TITLE     ---                                                                   
REMARK   3
REMARK   3 REFINEMENT.
REMARK   3   PROGRAM     : REFMAC 5.8.0267   
REMARK   3   AUTHORS     : MURSHUDOV,SKUBAK,LEBEDEV,PANNU,
REMARK   3                 STEINER,NICHOLLS,WINN,LONG,VAGIN
REMARK   3
REMARK   3    REFINEMENT TARGET : MAXIMUM LIKELIHOOD
REMARK   3
REMARK   3  DATA USED IN REFINEMENT.
REMARK   3   RESOLUTION RANGE HIGH (ANGSTROMS) :   2.25
REMARK   3   RESOLUTION RANGE LOW  (ANGSTROMS) :  54.69
REMARK   3   DATA CUTOFF            (SIGMA(F)) : NONE
REMARK   3   COMPLETENESS FOR RANGE        (%) :  75.88
REMARK   3   NUMBER OF REFLECTIONS             :    7577
REMARK   3
REMARK   3  FIT TO DATA USED IN REFINEMENT.
REMARK   3   CROSS-VALIDATION METHOD          : THROUGHOUT
REMARK   3   FREE R VALUE TEST SET SELECTION  : RANDOM
REMARK   3   R VALUE     (WORKING + TEST SET) : 0.21456
REMARK   3   R VALUE            (WORKING SET) :  0.20874
REMARK   3   FREE R VALUE                     :  0.32582
REMARK   3   FREE R VALUE TEST SET SIZE   (%) :  4.9
REMARK   3   FREE R VALUE TEST SET COUNT      :   388
REMARK   3
REMARK   3  FIT IN THE HIGHEST RESOLUTION BIN.
REMARK   3   TOTAL NUMBER OF BINS USED           :      20
REMARK   3   BIN RESOLUTION RANGE HIGH           :    2.250
REMARK   3   BIN RESOLUTION RANGE LOW            :    2.308
REMARK   3   REFLECTION IN BIN     (WORKING SET) :      413
REMARK   3   BIN COMPLETENESS (WORKING+TEST) (%) :    58.02
REMARK   3   BIN R VALUE           (WORKING SET) :    0.409
REMARK   3   BIN FREE R VALUE SET COUNT          :       14
REMARK   3   BIN FREE R VALUE                    :    0.352
REMARK   3
REMARK   3  NUMBER OF NON-HYDROGEN ATOMS USED IN REFINEMENT.
REMARK   3   ALL ATOMS                :     1844
REMARK   3
REMARK   3  B VALUES.
REMARK   3   FROM WILSON PLOT           (A**2) : NULL
REMARK   3   MEAN B VALUE      (OVERALL, A**2) :  67.817
REMARK   3   OVERALL ANISOTROPIC B VALUE.
REMARK   3    B11 (A**2) :     2.28
REMARK   3    B22 (A**2) :     2.28
REMARK   3    B33 (A**2) :    -4.56
REMARK   3    B12 (A**2) :     0.00
REMARK   3    B13 (A**2) :    -0.00
REMARK   3    B23 (A**2) :    -0.00
REMARK   3
REMARK   3  ESTIMATED OVERALL COORDINATE ERROR.
REMARK   3   ESU BASED ON R VALUE                            (A):   1.586
REMARK   3   ESU BASED ON FREE R VALUE                       (A):   0.403
REMARK   3   ESU BASED ON MAXIMUM LIKELIHOOD                 (A):   0.397
REMARK   3   ESU FOR B VALUES BASED ON MAXIMUM LIKELIHOOD (A**2):  18.950
REMARK   3
REMARK   3 CORRELATION COEFFICIENTS.
REMARK   3   CORRELATION COEFFICIENT FO-FC      :   0.965
REMARK   3   CORRELATION COEFFICIENT FO-FC FREE :   0.908
REMARK   3
REMARK   3  RMS DEVIATIONS FROM IDEAL VALUES        COUNT    RMS    WEIGHT
REMARK   3   BOND LENGTHS REFINED ATOMS        (A):  1929 ; 0.007 ; 0.013
REMARK   3   BOND LENGTHS OTHERS               (A):  1633 ; 0.001 ; 0.015
REMARK   3   BOND ANGLES REFINED ATOMS   (DEGREES):  2383 ; 1.497 ; 1.636
REMARK   3   BOND ANGLES OTHERS          (DEGREES):  3767 ; 1.139 ; 1.590
REMARK   3   TORSION ANGLES, PERIOD 1    (DEGREES):   229 ; 7.912 ; 5.000
REMARK   3   TORSION ANGLES, PERIOD 2    (DEGREES):    79 ;33.359 ;21.899
REMARK   3   TORSION ANGLES, PERIOD 3    (DEGREES):   274 ;15.548 ;15.000
REMARK   3   TORSION ANGLES, PERIOD 4    (DEGREES):    10 ;17.267 ;15.000
REMARK   3   CHIRAL-CENTER RESTRAINTS       (A**3):   215 ; 0.050 ; 0.200
REMARK   3   GENERAL PLANES REFINED ATOMS      (A):  2048 ; 0.005 ; 0.020
REMARK   3   GENERAL PLANES OTHERS             (A):   402 ; 0.001 ; 0.020
REMARK   3
REMARK   3  ISOTROPIC THERMAL FACTOR RESTRAINTS.     COUNT   RMS    WEIGHT
REMARK   3   MAIN-CHAIN BOND REFINED ATOMS  (A**2):   978 ; 4.708 ; 6.859
REMARK   3   MAIN-CHAIN BOND OTHER ATOMS    (A**2):   915 ; 4.862 ; 6.827
REMARK   3   MAIN-CHAIN ANGLE REFINED ATOMS (A**2):  1113 ; 7.439 ;10.175
REMARK   3   MAIN-CHAIN ANGLE OTHER ATOMS (A**2)  :  1114 ; 7.436 ;10.181
REMARK   3   SIDE-CHAIN BOND REFINED ATOMS  (A**2):   951 ; 5.025 ; 7.431
REMARK   3   SIDE-CHAIN BOND OTHER ATOMS  (A**2)  :   948 ; 5.033 ; 7.428
REMARK   3   SIDE-CHAIN ANGLE OTHER ATOMS (A**2)  :  1271 ; 7.877 ;10.775
REMARK   3   LONG RANGE B REFINED ATOMS (A**2)    :  1935 ;11.617 ;76.031
REMARK   3   LONG RANGE B OTHER ATOMS (A**2)      :  1924 ;11.596 ;76.006
REMARK   3
REMARK   3  NCS RESTRAINTS STATISTICS
REMARK   3   NUMBER OF NCS GROUPS : NULL
REMARK   3
REMARK   3  TWIN DETAILS
REMARK   3   NUMBER OF TWIN DOMAINS  : NULL
REMARK   3
REMARK   3
REMARK   3  TLS DETAILS
REMARK   3   NUMBER OF TLS GROUPS  : NULL
REMARK   3
REMARK   3
REMARK   3  BULK SOLVENT MODELLING.
REMARK   3   METHOD USED :  MASK
REMARK   3   PARAMETERS FOR MASK CALCULATION
REMARK   3   VDW PROBE RADIUS   :   1.20
REMARK   3   ION PROBE RADIUS   :   0.80
REMARK   3   SHRINKAGE RADIUS   :   0.80
REMARK   3
REMARK   3  OTHER REFINEMENT REMARKS:
REMARK   3  HYDROGENS HAVE BEEN ADDED IN THE RIDING POSITIONS
REMARK   3  U VALUES      : REFINED INDIVIDUALLY
REMARK   3
CRYST1   42.820   42.820  218.740  90.00  90.00  90.00 P 43 2 2                 


$$$$
Zx1728a_ligand
  PyMOL3.0          3D                             0

 22 23  0  0  0  0  0  0  0  0999 V2000
   -5.2330    4.0300  -13.1540 C   0  0  0  0  0  0  0  0  0  0  0  0
   -6.8520    2.2700  -12.7940 N   0  0  0  0  0  0  0  0  0  0  0  0
   -5.2910    2.6270  -11.2320 O   0  0  0  0  0  0  0  0  0  0  0  0
   -5.7790    2.9150  -12.3220 C   0  0  0  0  0  0  0  0  0  0  0  0
   -9.1630    1.3490   -8.6040 N   0  0  0  0  0  0  0  0  0  0  0  0
   -7.9400    4.9850  -14.0910 O   0  0  0  0  0  0  0  0  0  0  0  0
   -8.1650    2.8880  -12.8990 C   0  0  0  0  0  0  0  0  0  0  0  0
   -8.8020    3.2210  -15.2260 N   0  0  0  0  0  0  0  0  0  0  0  0
   -8.5400    3.5940  -11.5920 C   0  0  0  0  0  0  0  0  0  0  0  0
   -6.6400    4.2280  -16.5180 N   0  0  0  0  0  0  0  0  0  0  0  0
   -9.4010    2.7340  -10.6770 C   0  0  0  0  0  0  0  0  0  0  0  0
   -8.9040    2.6420   -9.2430 C   0  0  0  0  0  0  0  0  0  0  0  0
   -8.2890    3.8130  -14.1260 C   0  0  0  0  0  0  0  0  0  0  0  0
   -9.0090    3.7800  -16.4930 C   0  0  0  0  0  0  0  0  0  0  0  0
  -10.2270    3.8320  -17.1240 C   0  0  0  0  0  0  0  0  0  0  0  0
  -10.3470    4.3950  -18.4030 C   0  0  0  0  0  0  0  0  0  0  0  0
   -9.2580    4.8970  -19.0510 C   0  0  0  0  0  0  0  0  0  0  0  0
   -7.9850    4.8560  -18.4430 C   0  0  0  0  0  0  0  0  0  0  0  0
   -6.8300    5.3600  -19.0780 C   0  0  0  0  0  0  0  0  0  0  0  0
   -5.6350    5.2890  -18.4360 C   0  0  0  0  0  0  0  0  0  0  0  0
   -5.5890    4.7100  -17.1530 C   0  0  0  0  0  0  0  0  0  0  0  0
   -7.8490    4.2940  -17.1560 C   0  0  0  0  0  0  0  0  0  0  0  0
  1  4  1  0  0  0  0
  2  7  1  0  0  0  0
  2  4  1  0  0  0  0
  3  4  2  0  0  0  0
  7  9  1  0  0  0  0
  7 13  1  0  0  0  0
  8 14  1  0  0  0  0
  9 11  1  0  0  0  0
 10 22  4  0  0  0  0
 11 12  1  0  0  0  0
  5 12  1  0  0  0  0
  6 13  2  0  0  0  0
  8 13  1  0  0  0  0
 14 15  4  0  0  0  0
 14 22  4  0  0  0  0
 15 16  4  0  0  0  0
 16 17  4  0  0  0  0
 17 18  4  0  0  0  0
 18 19  4  0  0  0  0
 18 22  4  0  0  0  0
 19 20  4  0  0  0  0
 20 21  4  0  0  0  0
 10 21  4  0  0  0  0
M  END
>  <pdb_header>
COMPND    XX01ZVNS2B-x1728_B_301_XX01ZVNS2B-x1291+B+301+1


$$$$
Zx1731a
  PyMOL3.0          3D                             0

 22 24  0  0  0  0  0  0  0  0999 V2000
   -3.3180    5.5100  -15.7150 C   0  0  0  0  0  0  0  0  0  0  0  0
   -5.6640    4.9850  -15.6030 N   0  0  0  0  0  0  0  0  0  0  0  0
   -7.8350    2.1300  -13.7640 O   0  0  0  0  0  0  0  0  0  0  0  0
   -4.6380    5.2760  -16.3880 C   0  0  0  0  0  0  0  0  0  0  0  0
   -7.7350    4.3810  -13.9490 N   0  0  0  0  0  0  0  0  0  0  0  0
   -5.0010    5.4560  -20.6450 O   0  0  0  0  0  0  0  0  0  0  0  0
   -4.7580    5.3640  -17.8010 C   0  0  0  0  0  0  0  0  0  0  0  0
   -8.0020    2.1270   -9.1570 N   0  0  0  0  0  0  0  0  0  0  0  0
   -5.9720    5.1380  -18.4040 C   0  0  0  0  0  0  0  0  0  0  0  0
   -7.0880    4.8150  -17.5750 C   0  0  0  0  0  0  0  0  0  0  0  0
   -8.3840    4.5610  -18.0930 C   0  0  0  0  0  0  0  0  0  0  0  0
   -9.4180    4.2540  -17.2610 C   0  0  0  0  0  0  0  0  0  0  0  0
   -9.2260    4.1930  -15.8710 C   0  0  0  0  0  0  0  0  0  0  0  0
   -7.9920    4.4430  -15.3230 C   0  0  0  0  0  0  0  0  0  0  0  0
   -6.8810    4.7460  -16.1690 C   0  0  0  0  0  0  0  0  0  0  0  0
   -7.7300    3.2360  -13.2400 C   0  0  0  0  0  0  0  0  0  0  0  0
   -7.6190    3.4120  -11.7330 C   0  0  0  0  0  0  0  0  0  0  0  0
   -6.6220    2.4030  -11.1520 C   0  0  0  0  0  0  0  0  0  0  0  0
   -6.6420    2.3960   -9.6360 C   0  0  0  0  0  0  0  0  0  0  0  0
   -8.9190    3.1940   -9.5720 C   0  0  0  0  0  0  0  0  0  0  0  0
   -9.0000    3.2570  -11.0830 C   0  0  0  0  0  0  0  0  0  0  0  0
   -6.1840    5.2120  -19.8980 C   0  0  0  0  0  0  0  0  0  0  0  0
  1  4  1  0  0  0  0
  2  4  4  0  0  0  0
  4  7  4  0  0  0  0
  7  9  4  0  0  0  0
  9 10  4  0  0  0  0
 10 11  4  0  0  0  0
 11 12  4  0  0  0  0
 12 13  4  0  0  0  0
 13 14  4  0  0  0  0
  5 14  1  0  0  0  0
  2 15  4  0  0  0  0
 10 15  4  0  0  0  0
 14 15  4  0  0  0  0
  3 16  2  0  0  0  0
  5 16  1  0  0  0  0
 16 17  1  0  0  0  0
 17 18  1  0  0  0  0
 17 21  1  0  0  0  0
 18 19  1  0  0  0  0
  8 19  1  0  0  0  0
  8 20  1  0  0  0  0
 20 21  1  0  0  0  0
  6 22  1  0  0  0  0
  9 22  1  0  0  0  0
M  END
>  <pdb_header>
HEADER    ----                                    21-NOV-23   XXXX              
TITLE     ---                                                                   
REMARK   3
REMARK   3 REFINEMENT.
REMARK   3   PROGRAM     : REFMAC 5.8.0267   
REMARK   3   AUTHORS     : MURSHUDOV,SKUBAK,LEBEDEV,PANNU,
REMARK   3                 STEINER,NICHOLLS,WINN,LONG,VAGIN
REMARK   3
REMARK   3    REFINEMENT TARGET : MAXIMUM LIKELIHOOD
REMARK   3
REMARK   3  DATA USED IN REFINEMENT.
REMARK   3   RESOLUTION RANGE HIGH (ANGSTROMS) :   1.86
REMARK   3   RESOLUTION RANGE LOW  (ANGSTROMS) :  54.37
REMARK   3   DATA CUTOFF            (SIGMA(F)) : NONE
REMARK   3   COMPLETENESS FOR RANGE        (%) :  98.63
REMARK   3   NUMBER OF REFLECTIONS             :   16811
REMARK   3
REMARK   3  FIT TO DATA USED IN REFINEMENT.
REMARK   3   CROSS-VALIDATION METHOD          : THROUGHOUT
REMARK   3   FREE R VALUE TEST SET SELECTION  : RANDOM
REMARK   3   R VALUE     (WORKING + TEST SET) : 0.22370
REMARK   3   R VALUE            (WORKING SET) :  0.22048
REMARK   3   FREE R VALUE                     :  0.28599
REMARK   3   FREE R VALUE TEST SET SIZE   (%) :  4.9
REMARK   3   FREE R VALUE TEST SET COUNT      :   873
REMARK   3
REMARK   3  FIT IN THE HIGHEST RESOLUTION BIN.
REMARK   3   TOTAL NUMBER OF BINS USED           :      20
REMARK   3   BIN RESOLUTION RANGE HIGH           :    1.860
REMARK   3   BIN RESOLUTION RANGE LOW            :    1.908
REMARK   3   REFLECTION IN BIN     (WORKING SET) :     1023
REMARK   3   BIN COMPLETENESS (WORKING+TEST) (%) :    84.67
REMARK   3   BIN R VALUE           (WORKING SET) :    0.523
REMARK   3   BIN FREE R VALUE SET COUNT          :       65
REMARK   3   BIN FREE R VALUE                    :    0.486
REMARK   3
REMARK   3  NUMBER OF NON-HYDROGEN ATOMS USED IN REFINEMENT.
REMARK   3   ALL ATOMS                :     1867
REMARK   3
REMARK   3  B VALUES.
REMARK   3   FROM WILSON PLOT           (A**2) : NULL
REMARK   3   MEAN B VALUE      (OVERALL, A**2) :  58.939
REMARK   3   OVERALL ANISOTROPIC B VALUE.
REMARK   3    B11 (A**2) :     2.70
REMARK   3    B22 (A**2) :     2.70
REMARK   3    B33 (A**2) :    -5.40
REMARK   3    B12 (A**2) :    -0.00
REMARK   3    B13 (A**2) :    -0.00
REMARK   3    B23 (A**2) :     0.00
REMARK   3
REMARK   3  ESTIMATED OVERALL COORDINATE ERROR.
REMARK   3   ESU BASED ON R VALUE                            (A):   0.187
REMARK   3   ESU BASED ON FREE R VALUE                       (A):   0.181
REMARK   3   ESU BASED ON MAXIMUM LIKELIHOOD                 (A):   0.265
REMARK   3   ESU FOR B VALUES BASED ON MAXIMUM LIKELIHOOD (A**2):  10.832
REMARK   3
REMARK   3 CORRELATION COEFFICIENTS.
REMARK   3   CORRELATION COEFFICIENT FO-FC      :   0.971
REMARK   3   CORRELATION COEFFICIENT FO-FC FREE :   0.947
REMARK   3
REMARK   3  RMS DEVIATIONS FROM IDEAL VALUES        COUNT    RMS    WEIGHT
REMARK   3   BOND LENGTHS REFINED ATOMS        (A):  1976 ; 0.008 ; 0.013
REMARK   3   BOND LENGTHS OTHERS               (A):  1642 ; 0.001 ; 0.015
REMARK   3   BOND ANGLES REFINED ATOMS   (DEGREES):  2443 ; 1.538 ; 1.636
REMARK   3   BOND ANGLES OTHERS          (DEGREES):  3797 ; 1.226 ; 1.585
REMARK   3   TORSION ANGLES, PERIOD 1    (DEGREES):   235 ; 8.244 ; 5.000
REMARK   3   TORSION ANGLES, PERIOD 2    (DEGREES):    83 ;32.433 ;22.771
REMARK   3   TORSION ANGLES, PERIOD 3    (DEGREES):   274 ;14.501 ;15.000
REMARK   3   TORSION ANGLES, PERIOD 4    (DEGREES):    10 ;14.925 ;15.000
REMARK   3   CHIRAL-CENTER RESTRAINTS       (A**3):   218 ; 0.056 ; 0.200
REMARK   3   GENERAL PLANES REFINED ATOMS      (A):  2104 ; 0.007 ; 0.020
REMARK   3   GENERAL PLANES OTHERS             (A):   402 ; 0.001 ; 0.020
REMARK   3
REMARK   3  ISOTROPIC THERMAL FACTOR RESTRAINTS.     COUNT   RMS    WEIGHT
REMARK   3   MAIN-CHAIN BOND REFINED ATOMS  (A**2):   989 ; 4.345 ; 5.950
REMARK   3   MAIN-CHAIN BOND OTHER ATOMS    (A**2):   938 ; 4.446 ; 5.861
REMARK   3   MAIN-CHAIN ANGLE REFINED ATOMS (A**2):  1137 ; 6.346 ; 8.738
REMARK   3   MAIN-CHAIN ANGLE OTHER ATOMS (A**2)  :  1138 ; 6.349 ; 8.743
REMARK   3   SIDE-CHAIN BOND REFINED ATOMS  (A**2):   987 ; 5.147 ; 6.375
REMARK   3   SIDE-CHAIN BOND OTHER ATOMS  (A**2)  :   988 ; 5.145 ; 6.379
REMARK   3   SIDE-CHAIN ANGLE OTHER ATOMS (A**2)  :  1307 ; 7.683 ; 9.260
REMARK   3   LONG RANGE B REFINED ATOMS (A**2)    :  2043 ;10.741 ;66.221
REMARK   3   LONG RANGE B OTHER ATOMS (A**2)      :  2027 ;10.605 ;66.048
REMARK   3
REMARK   3  NCS RESTRAINTS STATISTICS
REMARK   3   NUMBER OF NCS GROUPS : NULL
REMARK   3
REMARK   3  TWIN DETAILS
REMARK   3   NUMBER OF TWIN DOMAINS  : NULL
REMARK   3
REMARK   3
REMARK   3  TLS DETAILS
REMARK   3   NUMBER OF TLS GROUPS  : NULL
REMARK   3
REMARK   3
REMARK   3  BULK SOLVENT MODELLING.
REMARK   3   METHOD USED :  MASK
REMARK   3   PARAMETERS FOR MASK CALCULATION
REMARK   3   VDW PROBE RADIUS   :   1.20
REMARK   3   ION PROBE RADIUS   :   0.80
REMARK   3   SHRINKAGE RADIUS   :   0.80
REMARK   3
REMARK   3  OTHER REFINEMENT REMARKS:
REMARK   3  HYDROGENS HAVE BEEN ADDED IN THE RIDING POSITIONS
REMARK   3  U VALUES      : REFINED INDIVIDUALLY
REMARK   3
CRYST1   42.600   42.600  217.460  90.00  90.00  90.00 P 43 2 2                 


$$$$
Zx1731a_ligand
  PyMOL3.0          3D                             0

 22 24  0  0  0  0  0  0  0  0999 V2000
   -3.3180    5.5100  -15.7150 C   0  0  0  0  0  0  0  0  0  0  0  0
   -5.6640    4.9850  -15.6030 N   0  0  0  0  0  0  0  0  0  0  0  0
   -7.8350    2.1300  -13.7640 O   0  0  0  0  0  0  0  0  0  0  0  0
   -4.6380    5.2760  -16.3880 C   0  0  0  0  0  0  0  0  0  0  0  0
   -7.7350    4.3810  -13.9490 N   0  0  0  0  0  0  0  0  0  0  0  0
   -5.0010    5.4560  -20.6450 O   0  0  0  0  0  0  0  0  0  0  0  0
   -4.7580    5.3640  -17.8010 C   0  0  0  0  0  0  0  0  0  0  0  0
   -8.0020    2.1270   -9.1570 N   0  0  0  0  0  0  0  0  0  0  0  0
   -5.9720    5.1380  -18.4040 C   0  0  0  0  0  0  0  0  0  0  0  0
   -7.0880    4.8150  -17.5750 C   0  0  0  0  0  0  0  0  0  0  0  0
   -8.3840    4.5610  -18.0930 C   0  0  0  0  0  0  0  0  0  0  0  0
   -9.4180    4.2540  -17.2610 C   0  0  0  0  0  0  0  0  0  0  0  0
   -9.2260    4.1930  -15.8710 C   0  0  0  0  0  0  0  0  0  0  0  0
   -7.9920    4.4430  -15.3230 C   0  0  0  0  0  0  0  0  0  0  0  0
   -6.8810    4.7460  -16.1690 C   0  0  0  0  0  0  0  0  0  0  0  0
   -7.7300    3.2360  -13.2400 C   0  0  0  0  0  0  0  0  0  0  0  0
   -7.6190    3.4120  -11.7330 C   0  0  0  0  0  0  0  0  0  0  0  0
   -6.6220    2.4030  -11.1520 C   0  0  0  0  0  0  0  0  0  0  0  0
   -6.6420    2.3960   -9.6360 C   0  0  0  0  0  0  0  0  0  0  0  0
   -8.9190    3.1940   -9.5720 C   0  0  0  0  0  0  0  0  0  0  0  0
   -9.0000    3.2570  -11.0830 C   0  0  0  0  0  0  0  0  0  0  0  0
   -6.1840    5.2120  -19.8980 C   0  0  0  0  0  0  0  0  0  0  0  0
  1  4  1  0  0  0  0
  2  4  4  0  0  0  0
  4  7  4  0  0  0  0
  5 16  1  0  0  0  0
  7  9  4  0  0  0  0
  8 20  1  0  0  0  0
  9 10  4  0  0  0  0
  9 22  1  0  0  0  0
 10 11  4  0  0  0  0
 10 15  4  0  0  0  0
 11 12  4  0  0  0  0
 12 13  4  0  0  0  0
 13 14  4  0  0  0  0
  5 14  1  0  0  0  0
 14 15  4  0  0  0  0
  2 15  4  0  0  0  0
  3 16  2  0  0  0  0
 16 17  1  0  0  0  0
 17 18  1  0  0  0  0
 17 21  1  0  0  0  0
 18 19  1  0  0  0  0
  8 19  1  0  0  0  0
 20 21  1  0  0  0  0
  6 22  1  0  0  0  0
M  END
>  <pdb_header>
COMPND    XX01ZVNS2B-x1731_B_301_XX01ZVNS2B-x1291+B+301+1


$$$$
Zx1743a
  PyMOL3.0          3D                             0

 22 24  0  0  0  0  0  0  0  0999 V2000
   -3.3570    5.5130  -15.6270 C   0  0  0  0  0  0  0  0  0  0  0  0
   -5.7180    5.0460  -15.5520 N   0  0  0  0  0  0  0  0  0  0  0  0
   -7.8890    2.2190  -13.7820 O   0  0  0  0  0  0  0  0  0  0  0  0
   -4.6750    5.3190  -16.3150 C   0  0  0  0  0  0  0  0  0  0  0  0
   -7.8180    4.4810  -13.9350 N   0  0  0  0  0  0  0  0  0  0  0  0
   -4.9160    5.1660  -20.5670 O   0  0  0  0  0  0  0  0  0  0  0  0
   -4.7730    5.4340  -17.7230 C   0  0  0  0  0  0  0  0  0  0  0  0
   -7.7400    2.0270   -9.2280 N   0  0  0  0  0  0  0  0  0  0  0  0
   -5.9800    5.2570  -18.3500 C   0  0  0  0  0  0  0  0  0  0  0  0
   -7.1210    4.9620  -17.5440 C   0  0  0  0  0  0  0  0  0  0  0  0
   -8.4180    4.7580  -18.0800 C   0  0  0  0  0  0  0  0  0  0  0  0
   -9.4710    4.4720  -17.2650 C   0  0  0  0  0  0  0  0  0  0  0  0
   -9.2990    4.3770  -15.8760 C   0  0  0  0  0  0  0  0  0  0  0  0
   -8.0640    4.5800  -15.3090 C   0  0  0  0  0  0  0  0  0  0  0  0
   -6.9350    4.8660  -16.1380 C   0  0  0  0  0  0  0  0  0  0  0  0
   -7.7830    3.3190  -13.2470 C   0  0  0  0  0  0  0  0  0  0  0  0
   -7.6220    3.4640  -11.7410 C   0  0  0  0  0  0  0  0  0  0  0  0
   -6.4830    2.5640  -11.2440 C   0  0  0  0  0  0  0  0  0  0  0  0
   -6.4400    2.4800   -9.7330 C   0  0  0  0  0  0  0  0  0  0  0  0
   -8.7870    3.0010   -9.5450 C   0  0  0  0  0  0  0  0  0  0  0  0
   -8.9450    3.1240  -11.0460 C   0  0  0  0  0  0  0  0  0  0  0  0
   -6.1270    5.3760  -19.8500 C   0  0  0  0  0  0  0  0  0  0  0  0
  1  4  1  0  0  0  0
  2  4  4  0  0  0  0
  4  7  4  0  0  0  0
  7  9  4  0  0  0  0
  9 10  4  0  0  0  0
 10 11  4  0  0  0  0
 11 12  4  0  0  0  0
 12 13  4  0  0  0  0
 13 14  4  0  0  0  0
  5 14  1  0  0  0  0
  2 15  4  0  0  0  0
 10 15  4  0  0  0  0
 14 15  4  0  0  0  0
  3 16  2  0  0  0  0
  5 16  1  0  0  0  0
 16 17  1  0  0  0  0
 17 18  1  0  0  0  0
 17 21  1  0  0  0  0
 18 19  1  0  0  0  0
  8 19  1  0  0  0  0
  8 20  1  0  0  0  0
 20 21  1  0  0  0  0
  6 22  1  0  0  0  0
  9 22  1  0  0  0  0
M  END
>  <pdb_header>
HEADER    ----                                    21-NOV-23   XXXX              
TITLE     ---                                                                   
REMARK   3
REMARK   3 REFINEMENT.
REMARK   3   PROGRAM     : REFMAC 5.8.0267   
REMARK   3   AUTHORS     : MURSHUDOV,SKUBAK,LEBEDEV,PANNU,
REMARK   3                 STEINER,NICHOLLS,WINN,LONG,VAGIN
REMARK   3
REMARK   3    REFINEMENT TARGET : MAXIMUM LIKELIHOOD
REMARK   3
REMARK   3  DATA USED IN REFINEMENT.
REMARK   3   RESOLUTION RANGE HIGH (ANGSTROMS) :   1.89
REMARK   3   RESOLUTION RANGE LOW  (ANGSTROMS) :  54.30
REMARK   3   DATA CUTOFF            (SIGMA(F)) : NONE
REMARK   3   COMPLETENESS FOR RANGE        (%) :  86.51
REMARK   3   NUMBER OF REFLECTIONS             :   14135
REMARK   3
REMARK   3  FIT TO DATA USED IN REFINEMENT.
REMARK   3   CROSS-VALIDATION METHOD          : THROUGHOUT
REMARK   3   FREE R VALUE TEST SET SELECTION  : RANDOM
REMARK   3   R VALUE     (WORKING + TEST SET) : 0.23840
REMARK   3   R VALUE            (WORKING SET) :  0.23510
REMARK   3   FREE R VALUE                     :  0.30211
REMARK   3   FREE R VALUE TEST SET SIZE   (%) :  4.7
REMARK   3   FREE R VALUE TEST SET COUNT      :   703
REMARK   3
REMARK   3  FIT IN THE HIGHEST RESOLUTION BIN.
REMARK   3   TOTAL NUMBER OF BINS USED           :      20
REMARK   3   BIN RESOLUTION RANGE HIGH           :    1.886
REMARK   3   BIN RESOLUTION RANGE LOW            :    1.935
REMARK   3   REFLECTION IN BIN     (WORKING SET) :       26
REMARK   3   BIN COMPLETENESS (WORKING+TEST) (%) :     2.08
REMARK   3   BIN R VALUE           (WORKING SET) :    0.376
REMARK   3   BIN FREE R VALUE SET COUNT          :        0
REMARK   3   BIN FREE R VALUE                    :    0.000
REMARK   3
REMARK   3  NUMBER OF NON-HYDROGEN ATOMS USED IN REFINEMENT.
REMARK   3   ALL ATOMS                :     1818
REMARK   3
REMARK   3  B VALUES.
REMARK   3   FROM WILSON PLOT           (A**2) : NULL
REMARK   3   MEAN B VALUE      (OVERALL, A**2) :  55.110
REMARK   3   OVERALL ANISOTROPIC B VALUE.
REMARK   3    B11 (A**2) :     1.77
REMARK   3    B22 (A**2) :     1.77
REMARK   3    B33 (A**2) :    -3.55
REMARK   3    B12 (A**2) :    -0.00
REMARK   3    B13 (A**2) :    -0.00
REMARK   3    B23 (A**2) :    -0.00
REMARK   3
REMARK   3  ESTIMATED OVERALL COORDINATE ERROR.
REMARK   3   ESU BASED ON R VALUE                            (A):   0.243
REMARK   3   ESU BASED ON FREE R VALUE                       (A):   0.218
REMARK   3   ESU BASED ON MAXIMUM LIKELIHOOD                 (A):   0.315
REMARK   3   ESU FOR B VALUES BASED ON MAXIMUM LIKELIHOOD (A**2):  12.742
REMARK   3
REMARK   3 CORRELATION COEFFICIENTS.
REMARK   3   CORRELATION COEFFICIENT FO-FC      :   0.962
REMARK   3   CORRELATION COEFFICIENT FO-FC FREE :   0.931
REMARK   3
REMARK   3  RMS DEVIATIONS FROM IDEAL VALUES        COUNT    RMS    WEIGHT
REMARK   3   BOND LENGTHS REFINED ATOMS        (A):  1904 ; 0.006 ; 0.013
REMARK   3   BOND LENGTHS OTHERS               (A):  1606 ; 0.001 ; 0.015
REMARK   3   BOND ANGLES REFINED ATOMS   (DEGREES):  2380 ; 1.440 ; 1.634
REMARK   3   BOND ANGLES OTHERS          (DEGREES):  3710 ; 1.159 ; 1.586
REMARK   3   TORSION ANGLES, PERIOD 1    (DEGREES):   229 ; 8.152 ; 5.000
REMARK   3   TORSION ANGLES, PERIOD 2    (DEGREES):    77 ;32.717 ;22.208
REMARK   3   TORSION ANGLES, PERIOD 3    (DEGREES):   265 ;14.376 ;15.000
REMARK   3   TORSION ANGLES, PERIOD 4    (DEGREES):    10 ;15.642 ;15.000
REMARK   3   CHIRAL-CENTER RESTRAINTS       (A**3):   215 ; 0.050 ; 0.200
REMARK   3   GENERAL PLANES REFINED ATOMS      (A):  2038 ; 0.005 ; 0.020
REMARK   3   GENERAL PLANES OTHERS             (A):   396 ; 0.001 ; 0.020
REMARK   3
REMARK   3  ISOTROPIC THERMAL FACTOR RESTRAINTS.     COUNT   RMS    WEIGHT
REMARK   3   MAIN-CHAIN BOND REFINED ATOMS  (A**2):   966 ; 3.607 ; 5.592
REMARK   3   MAIN-CHAIN BOND OTHER ATOMS    (A**2):   915 ; 3.701 ; 5.507
REMARK   3   MAIN-CHAIN ANGLE REFINED ATOMS (A**2):  1113 ; 5.649 ; 8.239
REMARK   3   MAIN-CHAIN ANGLE OTHER ATOMS (A**2)  :  1114 ; 5.649 ; 8.244
REMARK   3   SIDE-CHAIN BOND REFINED ATOMS  (A**2):   938 ; 3.711 ; 5.938
REMARK   3   SIDE-CHAIN BOND OTHER ATOMS  (A**2)  :   938 ; 3.711 ; 5.938
REMARK   3   SIDE-CHAIN ANGLE OTHER ATOMS (A**2)  :  1268 ; 5.973 ; 8.706
REMARK   3   LONG RANGE B REFINED ATOMS (A**2)    :  1979 ; 9.289 ;62.185
REMARK   3   LONG RANGE B OTHER ATOMS (A**2)      :  1964 ; 8.973 ;61.971
REMARK   3
REMARK   3  NCS RESTRAINTS STATISTICS
REMARK   3   NUMBER OF NCS GROUPS : NULL
REMARK   3
REMARK   3  TWIN DETAILS
REMARK   3   NUMBER OF TWIN DOMAINS  : NULL
REMARK   3
REMARK   3
REMARK   3  TLS DETAILS
REMARK   3   NUMBER OF TLS GROUPS  : NULL
REMARK   3
REMARK   3
REMARK   3  BULK SOLVENT MODELLING.
REMARK   3   METHOD USED :  MASK
REMARK   3   PARAMETERS FOR MASK CALCULATION
REMARK   3   VDW PROBE RADIUS   :   1.20
REMARK   3   ION PROBE RADIUS   :   0.80
REMARK   3   SHRINKAGE RADIUS   :   0.80
REMARK   3
REMARK   3  OTHER REFINEMENT REMARKS:
REMARK   3  HYDROGENS HAVE BEEN ADDED IN THE RIDING POSITIONS
REMARK   3  U VALUES      : REFINED INDIVIDUALLY
REMARK   3
CRYST1   42.528   42.528  217.194  90.00  90.00  90.00 P 43 2 2                 


$$$$
Zx1743a_ligand
  PyMOL3.0          3D                             0

 22 24  0  0  0  0  0  0  0  0999 V2000
   -3.3570    5.5130  -15.6270 C   0  0  0  0  0  0  0  0  0  0  0  0
   -5.7180    5.0460  -15.5520 N   0  0  0  0  0  0  0  0  0  0  0  0
   -7.8890    2.2190  -13.7820 O   0  0  0  0  0  0  0  0  0  0  0  0
   -4.6750    5.3190  -16.3150 C   0  0  0  0  0  0  0  0  0  0  0  0
   -7.8180    4.4810  -13.9350 N   0  0  0  0  0  0  0  0  0  0  0  0
   -4.9160    5.1660  -20.5670 O   0  0  0  0  0  0  0  0  0  0  0  0
   -4.7730    5.4340  -17.7230 C   0  0  0  0  0  0  0  0  0  0  0  0
   -7.7400    2.0270   -9.2280 N   0  0  0  0  0  0  0  0  0  0  0  0
   -5.9800    5.2570  -18.3500 C   0  0  0  0  0  0  0  0  0  0  0  0
   -7.1210    4.9620  -17.5440 C   0  0  0  0  0  0  0  0  0  0  0  0
   -8.4180    4.7580  -18.0800 C   0  0  0  0  0  0  0  0  0  0  0  0
   -9.4710    4.4720  -17.2650 C   0  0  0  0  0  0  0  0  0  0  0  0
   -9.2990    4.3770  -15.8760 C   0  0  0  0  0  0  0  0  0  0  0  0
   -8.0640    4.5800  -15.3090 C   0  0  0  0  0  0  0  0  0  0  0  0
   -6.9350    4.8660  -16.1380 C   0  0  0  0  0  0  0  0  0  0  0  0
   -7.7830    3.3190  -13.2470 C   0  0  0  0  0  0  0  0  0  0  0  0
   -7.6220    3.4640  -11.7410 C   0  0  0  0  0  0  0  0  0  0  0  0
   -6.4830    2.5640  -11.2440 C   0  0  0  0  0  0  0  0  0  0  0  0
   -6.4400    2.4800   -9.7330 C   0  0  0  0  0  0  0  0  0  0  0  0
   -8.7870    3.0010   -9.5450 C   0  0  0  0  0  0  0  0  0  0  0  0
   -8.9450    3.1240  -11.0460 C   0  0  0  0  0  0  0  0  0  0  0  0
   -6.1270    5.3760  -19.8500 C   0  0  0  0  0  0  0  0  0  0  0  0
  1  4  1  0  0  0  0
  2  4  4  0  0  0  0
  4  7  4  0  0  0  0
  5 16  1  0  0  0  0
  7  9  4  0  0  0  0
  8 20  1  0  0  0  0
  9 10  4  0  0  0  0
  9 22  1  0  0  0  0
 10 11  4  0  0  0  0
 10 15  4  0  0  0  0
 11 12  4  0  0  0  0
 12 13  4  0  0  0  0
 13 14  4  0  0  0  0
  5 14  1  0  0  0  0
 14 15  4  0  0  0  0
  2 15  4  0  0  0  0
  3 16  2  0  0  0  0
 16 17  1  0  0  0  0
 17 18  1  0  0  0  0
 17 21  1  0  0  0  0
 18 19  1  0  0  0  0
  8 19  1  0  0  0  0
 20 21  1  0  0  0  0
  6 22  1  0  0  0  0
M  END
>  <pdb_header>
COMPND    XX01ZVNS2B-x1743_B_301_XX01ZVNS2B-x1291+B+301+1


$$$$
Zx1745a
  PyMOL3.0          3D                             0

 11 12  0  0  0  0  0  0  0  0999 V2000
   -5.8520    5.0360  -18.7490 C   0  0  0  0  0  0  0  0  0  0  0  0
   -5.7970    4.9330  -20.1170 N   0  0  0  0  0  0  0  0  0  0  0  0
   -4.7260    5.4560  -18.0400 C   0  0  0  0  0  0  0  0  0  0  0  0
   -4.7220    5.5810  -16.7030 N   0  0  0  0  0  0  0  0  0  0  0  0
   -5.8200    5.2810  -16.0310 C   0  0  0  0  0  0  0  0  0  0  0  0
   -7.0370    4.8340  -16.6230 C   0  0  0  0  0  0  0  0  0  0  0  0
   -8.2000    4.5130  -15.8880 C   0  0  0  0  0  0  0  0  0  0  0  0
   -9.3220    4.0760  -16.5310 C   0  0  0  0  0  0  0  0  0  0  0  0
   -9.3480    3.9530  -17.9290 C   0  0  0  0  0  0  0  0  0  0  0  0
   -8.2390    4.2570  -18.6690 C   0  0  0  0  0  0  0  0  0  0  0  0
   -7.0530    4.7090  -18.0380 C   0  0  0  0  0  0  0  0  0  0  0  0
  1  2  1  0  0  0  0
  1  3  4  0  0  0  0
  1 11  4  0  0  0  0
  3  4  4  0  0  0  0
  4  5  4  0  0  0  0
  5  6  4  0  0  0  0
  6  7  4  0  0  0  0
  6 11  4  0  0  0  0
  7  8  4  0  0  0  0
  8  9  4  0  0  0  0
  9 10  4  0  0  0  0
 10 11  4  0  0  0  0
M  END
>  <pdb_header>
HEADER    ----                                    06-DEC-23   XXXX              
TITLE     ---                                                                   
REMARK   3
REMARK   3 REFINEMENT.
REMARK   3   PROGRAM     : REFMAC 5.8.0267   
REMARK   3   AUTHORS     : MURSHUDOV,SKUBAK,LEBEDEV,PANNU,
REMARK   3                 STEINER,NICHOLLS,WINN,LONG,VAGIN
REMARK   3
REMARK   3    REFINEMENT TARGET : MAXIMUM LIKELIHOOD
REMARK   3
REMARK   3  DATA USED IN REFINEMENT.
REMARK   3   RESOLUTION RANGE HIGH (ANGSTROMS) :   1.97
REMARK   3   RESOLUTION RANGE LOW  (ANGSTROMS) :  54.33
REMARK   3   DATA CUTOFF            (SIGMA(F)) : NONE
REMARK   3   COMPLETENESS FOR RANGE        (%) :  99.70
REMARK   3   NUMBER OF REFLECTIONS             :   14338
REMARK   3
REMARK   3  FIT TO DATA USED IN REFINEMENT.
REMARK   3   CROSS-VALIDATION METHOD          : THROUGHOUT
REMARK   3   FREE R VALUE TEST SET SELECTION  : RANDOM
REMARK   3   R VALUE     (WORKING + TEST SET) : 0.22532
REMARK   3   R VALUE            (WORKING SET) :  0.22241
REMARK   3   FREE R VALUE                     :  0.28052
REMARK   3   FREE R VALUE TEST SET SIZE   (%) :  4.8
REMARK   3   FREE R VALUE TEST SET COUNT      :   723
REMARK   3
REMARK   3  FIT IN THE HIGHEST RESOLUTION BIN.
REMARK   3   TOTAL NUMBER OF BINS USED           :      20
REMARK   3   BIN RESOLUTION RANGE HIGH           :    1.970
REMARK   3   BIN RESOLUTION RANGE LOW            :    2.021
REMARK   3   REFLECTION IN BIN     (WORKING SET) :     1016
REMARK   3   BIN COMPLETENESS (WORKING+TEST) (%) :    97.38
REMARK   3   BIN R VALUE           (WORKING SET) :    0.457
REMARK   3   BIN FREE R VALUE SET COUNT          :       60
REMARK   3   BIN FREE R VALUE                    :    0.507
REMARK   3
REMARK   3  NUMBER OF NON-HYDROGEN ATOMS USED IN REFINEMENT.
REMARK   3   ALL ATOMS                :     1812
REMARK   3
REMARK   3  B VALUES.
REMARK   3   FROM WILSON PLOT           (A**2) : NULL
REMARK   3   MEAN B VALUE      (OVERALL, A**2) :  60.541
REMARK   3   OVERALL ANISOTROPIC B VALUE.
REMARK   3    B11 (A**2) :     3.04
REMARK   3    B22 (A**2) :     3.04
REMARK   3    B33 (A**2) :    -6.07
REMARK   3    B12 (A**2) :    -0.00
REMARK   3    B13 (A**2) :    -0.00
REMARK   3    B23 (A**2) :     0.00
REMARK   3
REMARK   3  ESTIMATED OVERALL COORDINATE ERROR.
REMARK   3   ESU BASED ON R VALUE                            (A):   0.225
REMARK   3   ESU BASED ON FREE R VALUE                       (A):   0.200
REMARK   3   ESU BASED ON MAXIMUM LIKELIHOOD                 (A):   0.252
REMARK   3   ESU FOR B VALUES BASED ON MAXIMUM LIKELIHOOD (A**2):  10.347
REMARK   3
REMARK   3 CORRELATION COEFFICIENTS.
REMARK   3   CORRELATION COEFFICIENT FO-FC      :   0.968
REMARK   3   CORRELATION COEFFICIENT FO-FC FREE :   0.946
REMARK   3
REMARK   3  RMS DEVIATIONS FROM IDEAL VALUES        COUNT    RMS    WEIGHT
REMARK   3   BOND LENGTHS REFINED ATOMS        (A):  1886 ; 0.008 ; 0.013
REMARK   3   BOND LENGTHS OTHERS               (A):  1609 ; 0.001 ; 0.015
REMARK   3   BOND ANGLES REFINED ATOMS   (DEGREES):  2355 ; 1.546 ; 1.636
REMARK   3   BOND ANGLES OTHERS          (DEGREES):  3711 ; 1.196 ; 1.589
REMARK   3   TORSION ANGLES, PERIOD 1    (DEGREES):   229 ; 7.910 ; 5.000
REMARK   3   TORSION ANGLES, PERIOD 2    (DEGREES):    77 ;31.909 ;22.208
REMARK   3   TORSION ANGLES, PERIOD 3    (DEGREES):   274 ;16.252 ;15.000
REMARK   3   TORSION ANGLES, PERIOD 4    (DEGREES):    10 ;20.081 ;15.000
REMARK   3   CHIRAL-CENTER RESTRAINTS       (A**3):   213 ; 0.056 ; 0.200
REMARK   3   GENERAL PLANES REFINED ATOMS      (A):  2024 ; 0.007 ; 0.020
REMARK   3   GENERAL PLANES OTHERS             (A):   402 ; 0.002 ; 0.020
REMARK   3
REMARK   3  ISOTROPIC THERMAL FACTOR RESTRAINTS.     COUNT   RMS    WEIGHT
REMARK   3   MAIN-CHAIN BOND REFINED ATOMS  (A**2):   968 ; 4.866 ; 6.155
REMARK   3   MAIN-CHAIN BOND OTHER ATOMS    (A**2):   915 ; 4.980 ; 6.074
REMARK   3   MAIN-CHAIN ANGLE REFINED ATOMS (A**2):  1113 ; 7.050 ; 9.070
REMARK   3   MAIN-CHAIN ANGLE OTHER ATOMS (A**2)  :  1114 ; 7.057 ; 9.074
REMARK   3   SIDE-CHAIN BOND REFINED ATOMS  (A**2):   918 ; 5.599 ; 6.536
REMARK   3   SIDE-CHAIN BOND OTHER ATOMS  (A**2)  :   918 ; 5.599 ; 6.535
REMARK   3   SIDE-CHAIN ANGLE OTHER ATOMS (A**2)  :  1243 ; 8.445 ; 9.528
REMARK   3   LONG RANGE B REFINED ATOMS (A**2)    :  1931 ;10.952 ;68.707
REMARK   3   LONG RANGE B OTHER ATOMS (A**2)      :  1912 ;10.867 ;68.407
REMARK   3
REMARK   3  NCS RESTRAINTS STATISTICS
REMARK   3   NUMBER OF NCS GROUPS : NULL
REMARK   3
REMARK   3  TWIN DETAILS
REMARK   3   NUMBER OF TWIN DOMAINS  : NULL
REMARK   3
REMARK   3
REMARK   3  TLS DETAILS
REMARK   3   NUMBER OF TLS GROUPS  : NULL
REMARK   3
REMARK   3
REMARK   3  BULK SOLVENT MODELLING.
REMARK   3   METHOD USED :  MASK
REMARK   3   PARAMETERS FOR MASK CALCULATION
REMARK   3   VDW PROBE RADIUS   :   1.20
REMARK   3   ION PROBE RADIUS   :   0.80
REMARK   3   SHRINKAGE RADIUS   :   0.80
REMARK   3
REMARK   3  OTHER REFINEMENT REMARKS:
REMARK   3  HYDROGENS HAVE BEEN ADDED IN THE RIDING POSITIONS
REMARK   3  U VALUES      : REFINED INDIVIDUALLY
REMARK   3
CRYST1   42.490   42.490  217.300  90.00  90.00  90.00 P 43 2 2                 


$$$$
Zx1745a_ligand
  PyMOL3.0          3D                             0

 11 12  0  0  0  0  0  0  0  0999 V2000
   -5.8520    5.0360  -18.7490 C   0  0  0  0  0  0  0  0  0  0  0  0
   -5.7970    4.9330  -20.1170 N   0  0  0  0  0  0  0  0  0  0  0  0
   -4.7260    5.4560  -18.0400 C   0  0  0  0  0  0  0  0  0  0  0  0
   -4.7220    5.5810  -16.7030 N   0  0  0  0  0  0  0  0  0  0  0  0
   -5.8200    5.2810  -16.0310 C   0  0  0  0  0  0  0  0  0  0  0  0
   -7.0370    4.8340  -16.6230 C   0  0  0  0  0  0  0  0  0  0  0  0
   -8.2000    4.5130  -15.8880 C   0  0  0  0  0  0  0  0  0  0  0  0
   -9.3220    4.0760  -16.5310 C   0  0  0  0  0  0  0  0  0  0  0  0
   -9.3480    3.9530  -17.9290 C   0  0  0  0  0  0  0  0  0  0  0  0
   -8.2390    4.2570  -18.6690 C   0  0  0  0  0  0  0  0  0  0  0  0
   -7.0530    4.7090  -18.0380 C   0  0  0  0  0  0  0  0  0  0  0  0
  1  3  4  0  0  0  0
  1 11  4  0  0  0  0
  1  2  1  0  0  0  0
  3  4  4  0  0  0  0
  4  5  4  0  0  0  0
  5  6  4  0  0  0  0
  6  7  4  0  0  0  0
  6 11  4  0  0  0  0
  7  8  4  0  0  0  0
  8  9  4  0  0  0  0
  9 10  4  0  0  0  0
 10 11  4  0  0  0  0
M  END
>  <pdb_header>
COMPND    XX01ZVNS2B-x1745_B_301_XX01ZVNS2B-x1291+B+301+1


$$$$
Zx1752a
  PyMOL3.0          3D                             0

 22 23  0  0  0  0  0  0  0  0999 V2000
   -8.8950    4.4820   -9.1330 C   0  0  0  0  0  0  0  0  0  0  0  0
   -7.6490    3.3320  -10.8820 N   0  0  0  0  0  0  0  0  0  0  0  0
   -7.9200    2.3300   -8.9050 O   0  0  0  0  0  0  0  0  0  0  0  0
   -8.1220    3.3010   -9.6290 C   0  0  0  0  0  0  0  0  0  0  0  0
   -6.5950    8.3750  -11.2610 N   0  0  0  0  0  0  0  0  0  0  0  0
   -7.8540    2.5150  -13.5480 O   0  0  0  0  0  0  0  0  0  0  0  0
   -8.0830    4.2730  -11.9050 C   0  0  0  0  0  0  0  0  0  0  0  0
   -7.4210    4.6240  -14.2520 N   0  0  0  0  0  0  0  0  0  0  0  0
   -7.4640    5.6560  -11.6780 C   0  0  0  0  0  0  0  0  0  0  0  0
   -5.4200    5.0670  -15.9880 N   0  0  0  0  0  0  0  0  0  0  0  0
   -8.2810    6.8030  -12.2570 C   0  0  0  0  0  0  0  0  0  0  0  0
   -7.4850    8.0910  -12.3920 C   0  0  0  0  0  0  0  0  0  0  0  0
   -7.7790    3.7160  -13.3170 C   0  0  0  0  0  0  0  0  0  0  0  0
   -7.7540    4.6220  -15.6120 C   0  0  0  0  0  0  0  0  0  0  0  0
   -9.0150    4.4060  -16.1150 C   0  0  0  0  0  0  0  0  0  0  0  0
   -9.2390    4.4190  -17.5030 C   0  0  0  0  0  0  0  0  0  0  0  0
   -8.2170    4.6460  -18.3780 C   0  0  0  0  0  0  0  0  0  0  0  0
   -6.9070    4.8700  -17.9020 C   0  0  0  0  0  0  0  0  0  0  0  0
   -6.6650    4.8590  -16.5100 C   0  0  0  0  0  0  0  0  0  0  0  0
   -4.4330    5.2820  -16.8380 C   0  0  0  0  0  0  0  0  0  0  0  0
   -4.5840    5.3110  -18.2390 C   0  0  0  0  0  0  0  0  0  0  0  0
   -5.8190    5.1050  -18.7700 C   0  0  0  0  0  0  0  0  0  0  0  0
  1  4  1  0  0  0  0
  2  4  1  0  0  0  0
  3  4  2  0  0  0  0
  2  7  1  0  0  0  0
  7  9  1  0  0  0  0
  7 13  1  0  0  0  0
  9 11  1  0  0  0  0
 11 12  1  0  0  0  0
  5 12  1  0  0  0  0
  6 13  2  0  0  0  0
  8 13  1  0  0  0  0
  8 14  1  0  0  0  0
 14 15  4  0  0  0  0
 15 16  4  0  0  0  0
 16 17  4  0  0  0  0
 17 18  4  0  0  0  0
 18 19  4  0  0  0  0
 18 22  4  0  0  0  0
 10 19  4  0  0  0  0
 14 19  4  0  0  0  0
 10 20  4  0  0  0  0
 20 21  4  0  0  0  0
 21 22  4  0  0  0  0
M  END
>  <pdb_header>
HEADER    ----                                    22-DEC-23   XXXX              
TITLE     ---                                                                   
REMARK   3
REMARK   3 REFINEMENT.
REMARK   3   PROGRAM     : REFMAC 5.8.0267   
REMARK   3   AUTHORS     : MURSHUDOV,SKUBAK,LEBEDEV,PANNU,
REMARK   3                 STEINER,NICHOLLS,WINN,LONG,VAGIN
REMARK   3
REMARK   3    REFINEMENT TARGET : MAXIMUM LIKELIHOOD
REMARK   3
REMARK   3  DATA USED IN REFINEMENT.
REMARK   3   RESOLUTION RANGE HIGH (ANGSTROMS) :   1.89
REMARK   3   RESOLUTION RANGE LOW  (ANGSTROMS) :  54.26
REMARK   3   DATA CUTOFF            (SIGMA(F)) : NONE
REMARK   3   COMPLETENESS FOR RANGE        (%) :  92.14
REMARK   3   NUMBER OF REFLECTIONS             :   14944
REMARK   3
REMARK   3  FIT TO DATA USED IN REFINEMENT.
REMARK   3   CROSS-VALIDATION METHOD          : THROUGHOUT
REMARK   3   FREE R VALUE TEST SET SELECTION  : RANDOM
REMARK   3   R VALUE     (WORKING + TEST SET) : 0.24869
REMARK   3   R VALUE            (WORKING SET) :  0.24617
REMARK   3   FREE R VALUE                     :  0.29662
REMARK   3   FREE R VALUE TEST SET SIZE   (%) :  4.8
REMARK   3   FREE R VALUE TEST SET COUNT      :   751
REMARK   3
REMARK   3  FIT IN THE HIGHEST RESOLUTION BIN.
REMARK   3   TOTAL NUMBER OF BINS USED           :      20
REMARK   3   BIN RESOLUTION RANGE HIGH           :    1.890
REMARK   3   BIN RESOLUTION RANGE LOW            :    1.939
REMARK   3   REFLECTION IN BIN     (WORKING SET) :      242
REMARK   3   BIN COMPLETENESS (WORKING+TEST) (%) :    20.48
REMARK   3   BIN R VALUE           (WORKING SET) :    0.611
REMARK   3   BIN FREE R VALUE SET COUNT          :       15
REMARK   3   BIN FREE R VALUE                    :    0.874
REMARK   3
REMARK   3  NUMBER OF NON-HYDROGEN ATOMS USED IN REFINEMENT.
REMARK   3   ALL ATOMS                :     1878
REMARK   3
REMARK   3  B VALUES.
REMARK   3   FROM WILSON PLOT           (A**2) : NULL
REMARK   3   MEAN B VALUE      (OVERALL, A**2) :  58.236
REMARK   3   OVERALL ANISOTROPIC B VALUE.
REMARK   3    B11 (A**2) :     2.19
REMARK   3    B22 (A**2) :     2.19
REMARK   3    B33 (A**2) :    -4.37
REMARK   3    B12 (A**2) :    -0.00
REMARK   3    B13 (A**2) :    -0.00
REMARK   3    B23 (A**2) :    -0.00
REMARK   3
REMARK   3  ESTIMATED OVERALL COORDINATE ERROR.
REMARK   3   ESU BASED ON R VALUE                            (A):   0.244
REMARK   3   ESU BASED ON FREE R VALUE                       (A):   0.208
REMARK   3   ESU BASED ON MAXIMUM LIKELIHOOD                 (A):   0.334
REMARK   3   ESU FOR B VALUES BASED ON MAXIMUM LIKELIHOOD (A**2):  14.940
REMARK   3
REMARK   3 CORRELATION COEFFICIENTS.
REMARK   3   CORRELATION COEFFICIENT FO-FC      :   0.959
REMARK   3   CORRELATION COEFFICIENT FO-FC FREE :   0.942
REMARK   3
REMARK   3  RMS DEVIATIONS FROM IDEAL VALUES        COUNT    RMS    WEIGHT
REMARK   3   BOND LENGTHS REFINED ATOMS        (A):  2033 ; 0.013 ; 0.014
REMARK   3   BOND LENGTHS OTHERS               (A):  1666 ; 0.001 ; 0.015
REMARK   3   BOND ANGLES REFINED ATOMS   (DEGREES):  2464 ; 1.336 ; 1.634
REMARK   3   BOND ANGLES OTHERS          (DEGREES):  3845 ; 1.146 ; 1.591
REMARK   3   TORSION ANGLES, PERIOD 1    (DEGREES):   241 ; 7.219 ; 5.000
REMARK   3   TORSION ANGLES, PERIOD 2    (DEGREES):    82 ;32.385 ;22.195
REMARK   3   TORSION ANGLES, PERIOD 3    (DEGREES):   277 ;15.101 ;15.000
REMARK   3   TORSION ANGLES, PERIOD 4    (DEGREES):    10 ;17.085 ;15.000
REMARK   3   CHIRAL-CENTER RESTRAINTS       (A**3):   218 ; 0.046 ; 0.200
REMARK   3   GENERAL PLANES REFINED ATOMS      (A):  2150 ; 0.004 ; 0.020
REMARK   3   GENERAL PLANES OTHERS             (A):   420 ; 0.001 ; 0.020
REMARK   3
REMARK   3  ISOTROPIC THERMAL FACTOR RESTRAINTS.     COUNT   RMS    WEIGHT
REMARK   3   MAIN-CHAIN BOND REFINED ATOMS  (A**2):  1027 ; 2.995 ; 5.761
REMARK   3   MAIN-CHAIN BOND OTHER ATOMS    (A**2):   977 ; 3.064 ; 5.654
REMARK   3   MAIN-CHAIN ANGLE REFINED ATOMS (A**2):  1161 ; 5.025 ; 8.479
REMARK   3   MAIN-CHAIN ANGLE OTHER ATOMS (A**2)  :  1162 ; 5.025 ; 8.484
REMARK   3   SIDE-CHAIN BOND REFINED ATOMS  (A**2):  1006 ; 3.329 ; 6.452
REMARK   3   SIDE-CHAIN BOND OTHER ATOMS  (A**2)  :   994 ; 3.331 ; 6.356
REMARK   3   SIDE-CHAIN ANGLE OTHER ATOMS (A**2)  :  1292 ; 5.719 ; 9.136
REMARK   3   LONG RANGE B REFINED ATOMS (A**2)    :  2015 ;10.074 ;64.777
REMARK   3   LONG RANGE B OTHER ATOMS (A**2)      :  1996 ; 9.970 ;64.552
REMARK   3
REMARK   3  NCS RESTRAINTS STATISTICS
REMARK   3   NUMBER OF NCS GROUPS : NULL
REMARK   3
REMARK   3  TWIN DETAILS
REMARK   3   NUMBER OF TWIN DOMAINS  : NULL
REMARK   3
REMARK   3
REMARK   3  TLS DETAILS
REMARK   3   NUMBER OF TLS GROUPS  : NULL
REMARK   3
REMARK   3
REMARK   3  BULK SOLVENT MODELLING.
REMARK   3   METHOD USED :  MASK
REMARK   3   PARAMETERS FOR MASK CALCULATION
REMARK   3   VDW PROBE RADIUS   :   1.20
REMARK   3   ION PROBE RADIUS   :   0.80
REMARK   3   SHRINKAGE RADIUS   :   0.80
REMARK   3
REMARK   3  OTHER REFINEMENT REMARKS:
REMARK   3  HYDROGENS HAVE BEEN ADDED IN THE RIDING POSITIONS
REMARK   3  U VALUES      : REFINED INDIVIDUALLY
REMARK   3
CRYST1   42.527   42.527  217.029  90.00  90.00  90.00 P 43 2 2                 


$$$$
Zx1752a_ligand
  PyMOL3.0          3D                             0

 22 23  0  0  0  0  0  0  0  0999 V2000
   -8.8950    4.4820   -9.1330 C   0  0  0  0  0  0  0  0  0  0  0  0
   -7.6490    3.3320  -10.8820 N   0  0  0  0  0  0  0  0  0  0  0  0
   -7.9200    2.3300   -8.9050 O   0  0  0  0  0  0  0  0  0  0  0  0
   -8.1220    3.3010   -9.6290 C   0  0  0  0  0  0  0  0  0  0  0  0
   -6.5950    8.3750  -11.2610 N   0  0  0  0  0  0  0  0  0  0  0  0
   -7.8540    2.5150  -13.5480 O   0  0  0  0  0  0  0  0  0  0  0  0
   -8.0830    4.2730  -11.9050 C   0  0  0  0  0  0  0  0  0  0  0  0
   -7.4210    4.6240  -14.2520 N   0  0  0  0  0  0  0  0  0  0  0  0
   -7.4640    5.6560  -11.6780 C   0  0  0  0  0  0  0  0  0  0  0  0
   -5.4200    5.0670  -15.9880 N   0  0  0  0  0  0  0  0  0  0  0  0
   -8.2810    6.8030  -12.2570 C   0  0  0  0  0  0  0  0  0  0  0  0
   -7.4850    8.0910  -12.3920 C   0  0  0  0  0  0  0  0  0  0  0  0
   -7.7790    3.7160  -13.3170 C   0  0  0  0  0  0  0  0  0  0  0  0
   -7.7540    4.6220  -15.6120 C   0  0  0  0  0  0  0  0  0  0  0  0
   -9.0150    4.4060  -16.1150 C   0  0  0  0  0  0  0  0  0  0  0  0
   -9.2390    4.4190  -17.5030 C   0  0  0  0  0  0  0  0  0  0  0  0
   -8.2170    4.6460  -18.3780 C   0  0  0  0  0  0  0  0  0  0  0  0
   -6.9070    4.8700  -17.9020 C   0  0  0  0  0  0  0  0  0  0  0  0
   -6.6650    4.8590  -16.5100 C   0  0  0  0  0  0  0  0  0  0  0  0
   -4.4330    5.2820  -16.8380 C   0  0  0  0  0  0  0  0  0  0  0  0
   -4.5840    5.3110  -18.2390 C   0  0  0  0  0  0  0  0  0  0  0  0
   -5.8190    5.1050  -18.7700 C   0  0  0  0  0  0  0  0  0  0  0  0
  1  4  1  0  0  0  0
  2  7  1  0  0  0  0
  2  4  1  0  0  0  0
  3  4  2  0  0  0  0
  7  9  1  0  0  0  0
  7 13  1  0  0  0  0
  8 14  1  0  0  0  0
  9 11  1  0  0  0  0
 10 20  4  0  0  0  0
 11 12  1  0  0  0  0
  5 12  1  0  0  0  0
  6 13  2  0  0  0  0
  8 13  1  0  0  0  0
 14 15  4  0  0  0  0
 14 19  4  0  0  0  0
 15 16  4  0  0  0  0
 16 17  4  0  0  0  0
 17 18  4  0  0  0  0
 18 19  4  0  0  0  0
 18 22  4  0  0  0  0
 10 19  4  0  0  0  0
 20 21  4  0  0  0  0
 21 22  4  0  0  0  0
M  END
>  <pdb_header>
COMPND    XX01ZVNS2B-x1752_B_301_XX01ZVNS2B-x1291+B+301+1


$$$$
Zx1753a
  PyMOL3.0          3D                             0

 21 23  0  0  0  0  0  0  0  0999 V2000
   -3.4860    5.4060  -15.5550 C   0  0  0  0  0  0  0  0  0  0  0  0
   -5.8370    4.8480  -15.5320 N   0  0  0  0  0  0  0  0  0  0  0  0
   -7.4610    1.8810  -13.9630 O   0  0  0  0  0  0  0  0  0  0  0  0
   -4.7900    5.2000  -16.2640 C   0  0  0  0  0  0  0  0  0  0  0  0
   -7.9700    4.0950  -13.9830 N   0  0  0  0  0  0  0  0  0  0  0  0
   -4.9370    5.7010  -20.4450 O   0  0  0  0  0  0  0  0  0  0  0  0
   -7.0430    4.6640  -16.1430 C   0  0  0  0  0  0  0  0  0  0  0  0
   -9.1310    2.5690   -9.1020 N   0  0  0  0  0  0  0  0  0  0  0  0
   -7.2040    4.8450  -17.5440 C   0  0  0  0  0  0  0  0  0  0  0  0
   -8.4820    4.6330  -18.1220 C   0  0  0  0  0  0  0  0  0  0  0  0
   -9.5420    4.2620  -17.3520 C   0  0  0  0  0  0  0  0  0  0  0  0
   -9.3960    4.0850  -15.9680 C   0  0  0  0  0  0  0  0  0  0  0  0
   -8.1820    4.2880  -15.3560 C   0  0  0  0  0  0  0  0  0  0  0  0
   -7.8700    2.8840  -13.3820 C   0  0  0  0  0  0  0  0  0  0  0  0
   -8.3660    2.7870  -11.9620 C   0  0  0  0  0  0  0  0  0  0  0  0
   -8.7390    4.0480  -11.1600 C   0  0  0  0  0  0  0  0  0  0  0  0
   -8.2040    3.3210   -9.9220 C   0  0  0  0  0  0  0  0  0  0  0  0
   -7.3000    2.5340  -10.8770 C   0  0  0  0  0  0  0  0  0  0  0  0
   -6.0590    5.2310  -18.3070 C   0  0  0  0  0  0  0  0  0  0  0  0
   -6.1780    5.4350  -19.7980 C   0  0  0  0  0  0  0  0  0  0  0  0
   -4.8710    5.4050  -17.6550 C   0  0  0  0  0  0  0  0  0  0  0  0
  1  4  1  0  0  0  0
  2  4  4  0  0  0  0
  2  7  4  0  0  0  0
  7  9  4  0  0  0  0
  7 13  4  0  0  0  0
  9 10  4  0  0  0  0
 10 11  4  0  0  0  0
 11 12  4  0  0  0  0
 12 13  4  0  0  0  0
  5 13  1  0  0  0  0
  3 14  2  0  0  0  0
  5 14  1  0  0  0  0
 14 15  1  0  0  0  0
 15 16  1  0  0  0  0
 15 18  1  0  0  0  0
 16 17  1  0  0  0  0
  8 17  1  0  0  0  0
 17 18  1  0  0  0  0
  9 19  4  0  0  0  0
 19 20  1  0  0  0  0
 19 21  4  0  0  0  0
  6 20  1  0  0  0  0
  4 21  4  0  0  0  0
M  END
>  <pdb_header>
HEADER    ----                                    09-JAN-24   XXXX              
TITLE     ---                                                                   
REMARK   3
REMARK   3 REFINEMENT.
REMARK   3   PROGRAM     : REFMAC 5.8.0267   
REMARK   3   AUTHORS     : MURSHUDOV,SKUBAK,LEBEDEV,PANNU,
REMARK   3                 STEINER,NICHOLLS,WINN,LONG,VAGIN
REMARK   3
REMARK   3    REFINEMENT TARGET : MAXIMUM LIKELIHOOD
REMARK   3
REMARK   3  DATA USED IN REFINEMENT.
REMARK   3   RESOLUTION RANGE HIGH (ANGSTROMS) :   1.95
REMARK   3   RESOLUTION RANGE LOW  (ANGSTROMS) :  42.83
REMARK   3   DATA CUTOFF            (SIGMA(F)) : NONE
REMARK   3   COMPLETENESS FOR RANGE        (%) :  99.21
REMARK   3   NUMBER OF REFLECTIONS             :   14881
REMARK   3
REMARK   3  FIT TO DATA USED IN REFINEMENT.
REMARK   3   CROSS-VALIDATION METHOD          : THROUGHOUT
REMARK   3   FREE R VALUE TEST SET SELECTION  : RANDOM
REMARK   3   R VALUE     (WORKING + TEST SET) : 0.23274
REMARK   3   R VALUE            (WORKING SET) :  0.22866
REMARK   3   FREE R VALUE                     :  0.31145
REMARK   3   FREE R VALUE TEST SET SIZE   (%) :  4.8
REMARK   3   FREE R VALUE TEST SET COUNT      :   749
REMARK   3
REMARK   3  FIT IN THE HIGHEST RESOLUTION BIN.
REMARK   3   TOTAL NUMBER OF BINS USED           :      20
REMARK   3   BIN RESOLUTION RANGE HIGH           :    1.950
REMARK   3   BIN RESOLUTION RANGE LOW            :    2.001
REMARK   3   REFLECTION IN BIN     (WORKING SET) :     1005
REMARK   3   BIN COMPLETENESS (WORKING+TEST) (%) :    96.27
REMARK   3   BIN R VALUE           (WORKING SET) :    0.524
REMARK   3   BIN FREE R VALUE SET COUNT          :       54
REMARK   3   BIN FREE R VALUE                    :    0.591
REMARK   3
REMARK   3  NUMBER OF NON-HYDROGEN ATOMS USED IN REFINEMENT.
REMARK   3   ALL ATOMS                :     1852
REMARK   3
REMARK   3  B VALUES.
REMARK   3   FROM WILSON PLOT           (A**2) : NULL
REMARK   3   MEAN B VALUE      (OVERALL, A**2) :  64.254
REMARK   3   OVERALL ANISOTROPIC B VALUE.
REMARK   3    B11 (A**2) :     3.52
REMARK   3    B22 (A**2) :     3.52
REMARK   3    B33 (A**2) :    -7.04
REMARK   3    B12 (A**2) :     0.00
REMARK   3    B13 (A**2) :     0.00
REMARK   3    B23 (A**2) :    -0.00
REMARK   3
REMARK   3  ESTIMATED OVERALL COORDINATE ERROR.
REMARK   3   ESU BASED ON R VALUE                            (A):   0.226
REMARK   3   ESU BASED ON FREE R VALUE                       (A):   0.218
REMARK   3   ESU BASED ON MAXIMUM LIKELIHOOD                 (A):   0.305
REMARK   3   ESU FOR B VALUES BASED ON MAXIMUM LIKELIHOOD (A**2):  12.584
REMARK   3
REMARK   3 CORRELATION COEFFICIENTS.
REMARK   3   CORRELATION COEFFICIENT FO-FC      :   0.970
REMARK   3   CORRELATION COEFFICIENT FO-FC FREE :   0.936
REMARK   3
REMARK   3  RMS DEVIATIONS FROM IDEAL VALUES        COUNT    RMS    WEIGHT
REMARK   3   BOND LENGTHS REFINED ATOMS        (A):  1965 ; 0.007 ; 0.013
REMARK   3   BOND LENGTHS OTHERS               (A):  1617 ; 0.001 ; 0.015
REMARK   3   BOND ANGLES REFINED ATOMS   (DEGREES):  2416 ; 1.503 ; 1.637
REMARK   3   BOND ANGLES OTHERS          (DEGREES):  3737 ; 1.199 ; 1.589
REMARK   3   TORSION ANGLES, PERIOD 1    (DEGREES):   235 ; 7.905 ; 5.000
REMARK   3   TORSION ANGLES, PERIOD 2    (DEGREES):    80 ;34.245 ;22.500
REMARK   3   TORSION ANGLES, PERIOD 3    (DEGREES):   268 ;14.479 ;15.000
REMARK   3   TORSION ANGLES, PERIOD 4    (DEGREES):    10 ;14.568 ;15.000
REMARK   3   CHIRAL-CENTER RESTRAINTS       (A**3):   217 ; 0.055 ; 0.200
REMARK   3   GENERAL PLANES REFINED ATOMS      (A):  2092 ; 0.006 ; 0.020
REMARK   3   GENERAL PLANES OTHERS             (A):   402 ; 0.001 ; 0.020
REMARK   3
REMARK   3  ISOTROPIC THERMAL FACTOR RESTRAINTS.     COUNT   RMS    WEIGHT
REMARK   3   MAIN-CHAIN BOND REFINED ATOMS  (A**2):  1015 ; 4.878 ; 6.463
REMARK   3   MAIN-CHAIN BOND OTHER ATOMS    (A**2):   954 ; 5.011 ; 6.379
REMARK   3   MAIN-CHAIN ANGLE REFINED ATOMS (A**2):  1137 ; 7.164 ; 9.562
REMARK   3   MAIN-CHAIN ANGLE OTHER ATOMS (A**2)  :  1138 ; 7.169 ; 9.566
REMARK   3   SIDE-CHAIN BOND REFINED ATOMS  (A**2):   950 ; 5.224 ; 6.922
REMARK   3   SIDE-CHAIN BOND OTHER ATOMS  (A**2)  :   951 ; 5.221 ; 6.920
REMARK   3   SIDE-CHAIN ANGLE OTHER ATOMS (A**2)  :  1276 ; 8.083 ;10.112
REMARK   3   LONG RANGE B REFINED ATOMS (A**2)    :  2008 ;11.931 ;71.943
REMARK   3   LONG RANGE B OTHER ATOMS (A**2)      :  1988 ;11.769 ;71.594
REMARK   3
REMARK   3  NCS RESTRAINTS STATISTICS
REMARK   3   NUMBER OF NCS GROUPS : NULL
REMARK   3
REMARK   3  TWIN DETAILS
REMARK   3   NUMBER OF TWIN DOMAINS  : NULL
REMARK   3
REMARK   3
REMARK   3  TLS DETAILS
REMARK   3   NUMBER OF TLS GROUPS  : NULL
REMARK   3
REMARK   3
REMARK   3  BULK SOLVENT MODELLING.
REMARK   3   METHOD USED :  MASK
REMARK   3   PARAMETERS FOR MASK CALCULATION
REMARK   3   VDW PROBE RADIUS   :   1.20
REMARK   3   ION PROBE RADIUS   :   0.80
REMARK   3   SHRINKAGE RADIUS   :   0.80
REMARK   3
REMARK   3  OTHER REFINEMENT REMARKS:
REMARK   3  HYDROGENS HAVE BEEN ADDED IN THE RIDING POSITIONS
REMARK   3  U VALUES      : REFINED INDIVIDUALLY
REMARK   3
CRYST1   42.790   42.790  217.580  90.00  90.00  90.00 P 43 2 2                 


$$$$
Zx1753a_ligand
  PyMOL3.0          3D                             0

 21 23  0  0  0  0  0  0  0  0999 V2000
   -3.4860    5.4060  -15.5550 C   0  0  0  0  0  0  0  0  0  0  0  0
   -5.8370    4.8480  -15.5320 N   0  0  0  0  0  0  0  0  0  0  0  0
   -7.4610    1.8810  -13.9630 O   0  0  0  0  0  0  0  0  0  0  0  0
   -4.7900    5.2000  -16.2640 C   0  0  0  0  0  0  0  0  0  0  0  0
   -7.9700    4.0950  -13.9830 N   0  0  0  0  0  0  0  0  0  0  0  0
   -4.9370    5.7010  -20.4450 O   0  0  0  0  0  0  0  0  0  0  0  0
   -7.0430    4.6640  -16.1430 C   0  0  0  0  0  0  0  0  0  0  0  0
   -9.1310    2.5690   -9.1020 N   0  0  0  0  0  0  0  0  0  0  0  0
   -7.2040    4.8450  -17.5440 C   0  0  0  0  0  0  0  0  0  0  0  0
   -8.4820    4.6330  -18.1220 C   0  0  0  0  0  0  0  0  0  0  0  0
   -9.5420    4.2620  -17.3520 C   0  0  0  0  0  0  0  0  0  0  0  0
   -9.3960    4.0850  -15.9680 C   0  0  0  0  0  0  0  0  0  0  0  0
   -8.1820    4.2880  -15.3560 C   0  0  0  0  0  0  0  0  0  0  0  0
   -7.8700    2.8840  -13.3820 C   0  0  0  0  0  0  0  0  0  0  0  0
   -8.3660    2.7870  -11.9620 C   0  0  0  0  0  0  0  0  0  0  0  0
   -8.7390    4.0480  -11.1600 C   0  0  0  0  0  0  0  0  0  0  0  0
   -8.2040    3.3210   -9.9220 C   0  0  0  0  0  0  0  0  0  0  0  0
   -7.3000    2.5340  -10.8770 C   0  0  0  0  0  0  0  0  0  0  0  0
   -6.0590    5.2310  -18.3070 C   0  0  0  0  0  0  0  0  0  0  0  0
   -6.1780    5.4350  -19.7980 C   0  0  0  0  0  0  0  0  0  0  0  0
   -4.8710    5.4050  -17.6550 C   0  0  0  0  0  0  0  0  0  0  0  0
  1  4  1  0  0  0  0
  2  7  4  0  0  0  0
  2  4  4  0  0  0  0
  4 21  4  0  0  0  0
  5 14  1  0  0  0  0
  7  9  4  0  0  0  0
  7 13  4  0  0  0  0
  9 10  4  0  0  0  0
  9 19  4  0  0  0  0
 10 11  4  0  0  0  0
 11 12  4  0  0  0  0
 12 13  4  0  0  0  0
  5 13  1  0  0  0  0
  3 14  2  0  0  0  0
 14 15  1  0  0  0  0
 15 16  1  0  0  0  0
 15 18  1  0  0  0  0
 16 17  1  0  0  0  0
  8 17  1  0  0  0  0
 17 18  1  0  0  0  0
 19 20  1  0  0  0  0
 19 21  4  0  0  0  0
  6 20  1  0  0  0  0
M  END
>  <pdb_header>
COMPND    XX01ZVNS2B-x1753_B_301_XX01ZVNS2B-x1291+B+301+1


$$$$
Zx1756a
  PyMOL3.0          3D                             0

 16 17  0  0  0  0  0  0  0  0999 V2000
   -7.7840    5.6950  -12.9320 C   0  0  0  0  0  0  0  0  0  0  0  0
   -8.1520    5.4910  -11.5050 N   0  3  0  0  0  0  0  0  0  0  0  0
   -7.8810    7.9890  -12.3470 O   0  5  0  0  0  0  0  0  0  0  0  0
   -8.9640    5.3010  -13.8530 C   0  0  0  0  0  0  0  0  0  0  0  0
   -7.3530    5.4230  -15.6590 N   0  0  0  0  0  0  0  0  0  0  0  0
   -6.4890    7.3970  -13.9720 O   0  0  0  0  0  0  0  0  0  0  0  0
   -8.5680    5.0580  -15.2820 C   0  0  0  0  0  0  0  0  0  0  0  0
   -6.9740    5.2180  -16.9640 C   0  0  0  0  0  0  0  0  0  0  0  0
   -7.8490    4.6290  -17.9090 C   0  0  0  0  0  0  0  0  0  0  0  0
   -7.3990    4.4420  -19.2370 C   0  0  0  0  0  0  0  0  0  0  0  0
   -6.1430    4.8250  -19.5960 C   0  0  0  0  0  0  0  0  0  0  0  0
   -5.2760    5.4100  -18.6550 C   0  0  0  0  0  0  0  0  0  0  0  0
   -5.6770    5.6020  -17.3660 C   0  0  0  0  0  0  0  0  0  0  0  0
   -9.1390    4.2480  -17.4800 C   0  0  0  0  0  0  0  0  0  0  0  0
   -9.4920    4.4600  -16.1820 C   0  0  0  0  0  0  0  0  0  0  0  0
   -7.3520    7.1530  -13.1070 C   0  0  0  0  0  0  0  0  0  0  0  0
  1  2  1  0  0  0  0
  1  4  1  0  0  0  0
  1 16  1  0  0  0  0
  4  7  1  0  0  0  0
  5  7  4  0  0  0  0
  5  8  4  0  0  0  0
  8  9  4  0  0  0  0
  8 13  4  0  0  0  0
  9 10  4  0  0  0  0
 10 11  4  0  0  0  0
 11 12  4  0  0  0  0
 12 13  4  0  0  0  0
  9 14  4  0  0  0  0
 14 15  4  0  0  0  0
  7 15  4  0  0  0  0
  3 16  4  0  0  0  0
  6 16  4  0  0  0  0
M  END
>  <pdb_header>
HEADER    ----                                    09-JAN-24   XXXX              
TITLE     ---                                                                   
REMARK   3
REMARK   3 REFINEMENT.
REMARK   3   PROGRAM     : REFMAC 5.8.0267   
REMARK   3   AUTHORS     : MURSHUDOV,SKUBAK,LEBEDEV,PANNU,
REMARK   3                 STEINER,NICHOLLS,WINN,LONG,VAGIN
REMARK   3
REMARK   3    REFINEMENT TARGET : MAXIMUM LIKELIHOOD
REMARK   3
REMARK   3  DATA USED IN REFINEMENT.
REMARK   3   RESOLUTION RANGE HIGH (ANGSTROMS) :   1.76
REMARK   3   RESOLUTION RANGE LOW  (ANGSTROMS) :  54.23
REMARK   3   DATA CUTOFF            (SIGMA(F)) : NONE
REMARK   3   COMPLETENESS FOR RANGE        (%) :  89.23
REMARK   3   NUMBER OF REFLECTIONS             :   17684
REMARK   3
REMARK   3  FIT TO DATA USED IN REFINEMENT.
REMARK   3   CROSS-VALIDATION METHOD          : THROUGHOUT
REMARK   3   FREE R VALUE TEST SET SELECTION  : RANDOM
REMARK   3   R VALUE     (WORKING + TEST SET) : 0.23643
REMARK   3   R VALUE            (WORKING SET) :  0.23405
REMARK   3   FREE R VALUE                     :  0.28136
REMARK   3   FREE R VALUE TEST SET SIZE   (%) :  5.0
REMARK   3   FREE R VALUE TEST SET COUNT      :   925
REMARK   3
REMARK   3  FIT IN THE HIGHEST RESOLUTION BIN.
REMARK   3   TOTAL NUMBER OF BINS USED           :      20
REMARK   3   BIN RESOLUTION RANGE HIGH           :    1.758
REMARK   3   BIN RESOLUTION RANGE LOW            :    1.804
REMARK   3   REFLECTION IN BIN     (WORKING SET) :      288
REMARK   3   BIN COMPLETENESS (WORKING+TEST) (%) :    20.88
REMARK   3   BIN R VALUE           (WORKING SET) :    0.623
REMARK   3   BIN FREE R VALUE SET COUNT          :       16
REMARK   3   BIN FREE R VALUE                    :    0.701
REMARK   3
REMARK   3  NUMBER OF NON-HYDROGEN ATOMS USED IN REFINEMENT.
REMARK   3   ALL ATOMS                :     1885
REMARK   3
REMARK   3  B VALUES.
REMARK   3   FROM WILSON PLOT           (A**2) : NULL
REMARK   3   MEAN B VALUE      (OVERALL, A**2) :  51.729
REMARK   3   OVERALL ANISOTROPIC B VALUE.
REMARK   3    B11 (A**2) :     1.93
REMARK   3    B22 (A**2) :     1.93
REMARK   3    B33 (A**2) :    -3.85
REMARK   3    B12 (A**2) :    -0.00
REMARK   3    B13 (A**2) :    -0.00
REMARK   3    B23 (A**2) :     0.00
REMARK   3
REMARK   3  ESTIMATED OVERALL COORDINATE ERROR.
REMARK   3   ESU BASED ON R VALUE                            (A):   0.187
REMARK   3   ESU BASED ON FREE R VALUE                       (A):   0.171
REMARK   3   ESU BASED ON MAXIMUM LIKELIHOOD                 (A):   0.256
REMARK   3   ESU FOR B VALUES BASED ON MAXIMUM LIKELIHOOD (A**2):  10.388
REMARK   3
REMARK   3 CORRELATION COEFFICIENTS.
REMARK   3   CORRELATION COEFFICIENT FO-FC      :   0.962
REMARK   3   CORRELATION COEFFICIENT FO-FC FREE :   0.948
REMARK   3
REMARK   3  RMS DEVIATIONS FROM IDEAL VALUES        COUNT    RMS    WEIGHT
REMARK   3   BOND LENGTHS REFINED ATOMS        (A):  2017 ; 0.007 ; 0.013
REMARK   3   BOND LENGTHS OTHERS               (A):  1692 ; 0.001 ; 0.015
REMARK   3   BOND ANGLES REFINED ATOMS   (DEGREES):  2495 ; 1.457 ; 1.634
REMARK   3   BOND ANGLES OTHERS          (DEGREES):  3904 ; 1.183 ; 1.590
REMARK   3   TORSION ANGLES, PERIOD 1    (DEGREES):   241 ; 7.480 ; 5.000
REMARK   3   TORSION ANGLES, PERIOD 2    (DEGREES):    83 ;32.656 ;22.771
REMARK   3   TORSION ANGLES, PERIOD 3    (DEGREES):   286 ;15.273 ;15.000
REMARK   3   TORSION ANGLES, PERIOD 4    (DEGREES):    10 ;15.880 ;15.000
REMARK   3   CHIRAL-CENTER RESTRAINTS       (A**3):   227 ; 0.053 ; 0.200
REMARK   3   GENERAL PLANES REFINED ATOMS      (A):  2142 ; 0.006 ; 0.020
REMARK   3   GENERAL PLANES OTHERS             (A):   416 ; 0.001 ; 0.020
REMARK   3
REMARK   3  ISOTROPIC THERMAL FACTOR RESTRAINTS.     COUNT   RMS    WEIGHT
REMARK   3   MAIN-CHAIN BOND REFINED ATOMS  (A**2):  1002 ; 3.405 ; 5.170
REMARK   3   MAIN-CHAIN BOND OTHER ATOMS    (A**2):   978 ; 3.439 ; 5.155
REMARK   3   MAIN-CHAIN ANGLE REFINED ATOMS (A**2):  1167 ; 5.328 ; 7.624
REMARK   3   MAIN-CHAIN ANGLE OTHER ATOMS (A**2)  :  1168 ; 5.329 ; 7.629
REMARK   3   SIDE-CHAIN BOND REFINED ATOMS  (A**2):  1015 ; 3.870 ; 5.736
REMARK   3   SIDE-CHAIN BOND OTHER ATOMS  (A**2)  :  1016 ; 3.868 ; 5.738
REMARK   3   SIDE-CHAIN ANGLE OTHER ATOMS (A**2)  :  1329 ; 6.328 ; 8.218
REMARK   3   LONG RANGE B REFINED ATOMS (A**2)    :  1960 ;10.612 ;55.349
REMARK   3   LONG RANGE B OTHER ATOMS (A**2)      :  1939 ;10.443 ;55.159
REMARK   3
REMARK   3  NCS RESTRAINTS STATISTICS
REMARK   3   NUMBER OF NCS GROUPS : NULL
REMARK   3
REMARK   3  TWIN DETAILS
REMARK   3   NUMBER OF TWIN DOMAINS  : NULL
REMARK   3
REMARK   3
REMARK   3  TLS DETAILS
REMARK   3   NUMBER OF TLS GROUPS  : NULL
REMARK   3
REMARK   3
REMARK   3  BULK SOLVENT MODELLING.
REMARK   3   METHOD USED :  MASK
REMARK   3   PARAMETERS FOR MASK CALCULATION
REMARK   3   VDW PROBE RADIUS   :   1.20
REMARK   3   ION PROBE RADIUS   :   0.80
REMARK   3   SHRINKAGE RADIUS   :   0.80
REMARK   3
REMARK   3  OTHER REFINEMENT REMARKS:
REMARK   3  HYDROGENS HAVE BEEN ADDED IN THE RIDING POSITIONS
REMARK   3  U VALUES      : REFINED INDIVIDUALLY
REMARK   3
CRYST1   42.402   42.402  216.904  90.00  90.00  90.00 P 43 2 2                 


$$$$
Zx1756a_ligand
  PyMOL3.0          3D                             0

 16 17  0  0  0  0  0  0  0  0999 V2000
   -7.7840    5.6950  -12.9320 C   0  0  0  0  0  0  0  0  0  0  0  0
   -8.1520    5.4910  -11.5050 N   0  3  0  0  0  0  0  0  0  0  0  0
   -7.8810    7.9890  -12.3470 O   0  5  0  0  0  0  0  0  0  0  0  0
   -8.9640    5.3010  -13.8530 C   0  0  0  0  0  0  0  0  0  0  0  0
   -7.3530    5.4230  -15.6590 N   0  0  0  0  0  0  0  0  0  0  0  0
   -6.4890    7.3970  -13.9720 O   0  0  0  0  0  0  0  0  0  0  0  0
   -8.5680    5.0580  -15.2820 C   0  0  0  0  0  0  0  0  0  0  0  0
   -6.9740    5.2180  -16.9640 C   0  0  0  0  0  0  0  0  0  0  0  0
   -7.8490    4.6290  -17.9090 C   0  0  0  0  0  0  0  0  0  0  0  0
   -7.3990    4.4420  -19.2370 C   0  0  0  0  0  0  0  0  0  0  0  0
   -6.1430    4.8250  -19.5960 C   0  0  0  0  0  0  0  0  0  0  0  0
   -5.2760    5.4100  -18.6550 C   0  0  0  0  0  0  0  0  0  0  0  0
   -5.6770    5.6020  -17.3660 C   0  0  0  0  0  0  0  0  0  0  0  0
   -9.1390    4.2480  -17.4800 C   0  0  0  0  0  0  0  0  0  0  0  0
   -9.4920    4.4600  -16.1820 C   0  0  0  0  0  0  0  0  0  0  0  0
   -7.3520    7.1530  -13.1070 C   0  0  0  0  0  0  0  0  0  0  0  0
  1  4  1  0  0  0  0
  1 16  1  0  0  0  0
  1  2  1  0  0  0  0
  4  7  1  0  0  0  0
  5  8  4  0  0  0  0
  5  7  4  0  0  0  0
  7 15  4  0  0  0  0
  8  9  4  0  0  0  0
  8 13  4  0  0  0  0
  9 10  4  0  0  0  0
  9 14  4  0  0  0  0
 10 11  4  0  0  0  0
 11 12  4  0  0  0  0
 12 13  4  0  0  0  0
 14 15  4  0  0  0  0
  3 16  4  0  0  0  0
  6 16  4  0  0  0  0
M  END
>  <pdb_header>
COMPND    XX01ZVNS2B-x1756_B_301_XX01ZVNS2B-x1291+B+301+1


$$$$
Zx1761a
  PyMOL3.0          3D                             0

 28 31  0  0  0  0  0  0  0  0999 V2000
   -3.7860    5.5410  -14.5780 C   0  0  0  0  0  0  0  0  0  0  0  0
   -7.7870    4.6120  -10.6370 N   0  0  0  0  0  0  0  0  0  0  0  0
   -3.7460    4.8820  -19.6640 O   0  0  0  0  0  0  0  0  0  0  0  0
   -4.8460    5.3530  -15.6210 C   0  0  0  0  0  0  0  0  0  0  0  0
   -9.1270    1.7490   -8.8530 N   0  0  0  0  0  0  0  0  0  0  0  0
   -6.1510    4.9590  -12.1470 O   0  0  0  0  0  0  0  0  0  0  0  0
   -4.5000    5.4050  -16.9870 C   0  0  0  0  0  0  0  0  0  0  0  0
   -6.0860    5.1440  -15.2050 N   0  0  0  0  0  0  0  0  0  0  0  0
   -5.4600    5.2440  -17.9480 C   0  0  0  0  0  0  0  0  0  0  0  0
   -5.0880    5.3000  -19.4100 C   0  0  0  0  0  0  0  0  0  0  0  0
   -6.8100    5.0160  -17.5340 C   0  0  0  0  0  0  0  0  0  0  0  0
   -7.8770    4.8240  -18.4490 C   0  0  0  0  0  0  0  0  0  0  0  0
   -9.1420    4.6060  -17.9980 C   0  0  0  0  0  0  0  0  0  0  0  0
   -9.3950    4.5690  -16.6130 C   0  0  0  0  0  0  0  0  0  0  0  0
   -8.3960    4.7480  -15.6890 C   0  0  0  0  0  0  0  0  0  0  0  0
   -8.7320    4.6940  -14.2040 C   0  0  0  0  0  0  0  0  0  0  0  0
   -8.8190    6.0440  -13.5090 C   0  0  0  0  0  0  0  0  0  0  0  0
   -9.6350    7.0420  -14.0360 C   0  0  0  0  0  0  0  0  0  0  0  0
   -9.7450    8.2780  -13.4290 C   0  0  0  0  0  0  0  0  0  0  0  0
   -9.0510    8.5380  -12.2690 C   0  0  0  0  0  0  0  0  0  0  0  0
   -8.2440    7.5630  -11.7130 C   0  0  0  0  0  0  0  0  0  0  0  0
   -8.1120    6.3090  -12.3290 C   0  0  0  0  0  0  0  0  0  0  0  0
   -7.2500    5.2660  -11.6830 C   0  0  0  0  0  0  0  0  0  0  0  0
   -8.1980    5.2800   -9.3910 C   0  0  0  0  0  0  0  0  0  0  0  0
   -8.7460    4.1690   -8.5210 C   0  0  0  0  0  0  0  0  0  0  0  0
   -8.2360    2.8700   -9.1500 C   0  0  0  0  0  0  0  0  0  0  0  0
   -8.1300    3.1820  -10.6350 C   0  0  0  0  0  0  0  0  0  0  0  0
   -7.0810    4.9710  -16.1340 C   0  0  0  0  0  0  0  0  0  0  0  0
  1  4  1  0  0  0  0
  4  7  4  0  0  0  0
  4  8  4  0  0  0  0
  7  9  4  0  0  0  0
  9 10  1  0  0  0  0
  9 11  4  0  0  0  0
  3 10  1  0  0  0  0
 11 12  4  0  0  0  0
 12 13  4  0  0  0  0
 13 14  4  0  0  0  0
 14 15  4  0  0  0  0
 15 16  1  0  0  0  0
 15 28  4  0  0  0  0
 16 17  1  0  0  0  0
 17 18  4  0  0  0  0
 17 22  4  0  0  0  0
 18 19  4  0  0  0  0
 19 20  4  0  0  0  0
 20 21  4  0  0  0  0
 21 22  4  0  0  0  0
 22 23  1  0  0  0  0
  2 23  1  0  0  0  0
  6 23  2  0  0  0  0
  2 24  1  0  0  0  0
 24 25  1  0  0  0  0
 25 26  1  0  0  0  0
  5 26  1  0  0  0  0
 26 27  1  0  0  0  0
  2 27  1  0  0  0  0
  8 28  4  0  0  0  0
 11 28  4  0  0  0  0
M  END
>  <pdb_header>
HEADER    ----                                    09-JAN-24   XXXX              
TITLE     ---                                                                   
REMARK   3
REMARK   3 REFINEMENT.
REMARK   3   PROGRAM     : REFMAC 5.8.0267   
REMARK   3   AUTHORS     : MURSHUDOV,SKUBAK,LEBEDEV,PANNU,
REMARK   3                 STEINER,NICHOLLS,WINN,LONG,VAGIN
REMARK   3
REMARK   3    REFINEMENT TARGET : MAXIMUM LIKELIHOOD
REMARK   3
REMARK   3  DATA USED IN REFINEMENT.
REMARK   3   RESOLUTION RANGE HIGH (ANGSTROMS) :   1.72
REMARK   3   RESOLUTION RANGE LOW  (ANGSTROMS) :  54.18
REMARK   3   DATA CUTOFF            (SIGMA(F)) : NONE
REMARK   3   COMPLETENESS FOR RANGE        (%) :  90.63
REMARK   3   NUMBER OF REFLECTIONS             :   19115
REMARK   3
REMARK   3  FIT TO DATA USED IN REFINEMENT.
REMARK   3   CROSS-VALIDATION METHOD          : THROUGHOUT
REMARK   3   FREE R VALUE TEST SET SELECTION  : RANDOM
REMARK   3   R VALUE     (WORKING + TEST SET) : 0.24009
REMARK   3   R VALUE            (WORKING SET) :  0.23690
REMARK   3   FREE R VALUE                     :  0.30088
REMARK   3   FREE R VALUE TEST SET SIZE   (%) :  5.0
REMARK   3   FREE R VALUE TEST SET COUNT      :  1008
REMARK   3
REMARK   3  FIT IN THE HIGHEST RESOLUTION BIN.
REMARK   3   TOTAL NUMBER OF BINS USED           :      20
REMARK   3   BIN RESOLUTION RANGE HIGH           :    1.718
REMARK   3   BIN RESOLUTION RANGE LOW            :    1.763
REMARK   3   REFLECTION IN BIN     (WORKING SET) :      317
REMARK   3   BIN COMPLETENESS (WORKING+TEST) (%) :    20.79
REMARK   3   BIN R VALUE           (WORKING SET) :    0.614
REMARK   3   BIN FREE R VALUE SET COUNT          :       20
REMARK   3   BIN FREE R VALUE                    :    0.822
REMARK   3
REMARK   3  NUMBER OF NON-HYDROGEN ATOMS USED IN REFINEMENT.
REMARK   3   ALL ATOMS                :     1923
REMARK   3
REMARK   3  B VALUES.
REMARK   3   FROM WILSON PLOT           (A**2) : NULL
REMARK   3   MEAN B VALUE      (OVERALL, A**2) :  54.068
REMARK   3   OVERALL ANISOTROPIC B VALUE.
REMARK   3    B11 (A**2) :     2.43
REMARK   3    B22 (A**2) :     2.43
REMARK   3    B33 (A**2) :    -4.87
REMARK   3    B12 (A**2) :    -0.00
REMARK   3    B13 (A**2) :    -0.00
REMARK   3    B23 (A**2) :    -0.00
REMARK   3
REMARK   3  ESTIMATED OVERALL COORDINATE ERROR.
REMARK   3   ESU BASED ON R VALUE                            (A):   0.176
REMARK   3   ESU BASED ON FREE R VALUE                       (A):   0.172
REMARK   3   ESU BASED ON MAXIMUM LIKELIHOOD                 (A):   0.204
REMARK   3   ESU FOR B VALUES BASED ON MAXIMUM LIKELIHOOD (A**2):   7.145
REMARK   3
REMARK   3 CORRELATION COEFFICIENTS.
REMARK   3   CORRELATION COEFFICIENT FO-FC      :   0.963
REMARK   3   CORRELATION COEFFICIENT FO-FC FREE :   0.943
REMARK   3
REMARK   3  RMS DEVIATIONS FROM IDEAL VALUES        COUNT    RMS    WEIGHT
REMARK   3   BOND LENGTHS REFINED ATOMS        (A):  2069 ; 0.008 ; 0.014
REMARK   3   BOND LENGTHS OTHERS               (A):  1722 ; 0.001 ; 0.015
REMARK   3   BOND ANGLES REFINED ATOMS   (DEGREES):  2528 ; 1.554 ; 1.639
REMARK   3   BOND ANGLES OTHERS          (DEGREES):  3973 ; 1.214 ; 1.588
REMARK   3   TORSION ANGLES, PERIOD 1    (DEGREES):   241 ; 7.440 ; 5.000
REMARK   3   TORSION ANGLES, PERIOD 2    (DEGREES):    85 ;34.024 ;22.471
REMARK   3   TORSION ANGLES, PERIOD 3    (DEGREES):   289 ;16.591 ;15.000
REMARK   3   TORSION ANGLES, PERIOD 4    (DEGREES):    10 ;16.760 ;15.000
REMARK   3   CHIRAL-CENTER RESTRAINTS       (A**3):   227 ; 0.060 ; 0.200
REMARK   3   GENERAL PLANES REFINED ATOMS      (A):  2170 ; 0.008 ; 0.020
REMARK   3   GENERAL PLANES OTHERS             (A):   420 ; 0.001 ; 0.020
REMARK   3
REMARK   3  ISOTROPIC THERMAL FACTOR RESTRAINTS.     COUNT   RMS    WEIGHT
REMARK   3   MAIN-CHAIN BOND REFINED ATOMS  (A**2):  1022 ; 4.135 ; 5.386
REMARK   3   MAIN-CHAIN BOND OTHER ATOMS    (A**2):   978 ; 4.217 ; 5.329
REMARK   3   MAIN-CHAIN ANGLE REFINED ATOMS (A**2):  1167 ; 6.071 ; 7.866
REMARK   3   MAIN-CHAIN ANGLE OTHER ATOMS (A**2)  :  1168 ; 6.071 ; 7.873
REMARK   3   SIDE-CHAIN BOND REFINED ATOMS  (A**2):  1047 ; 4.713 ; 6.070
REMARK   3   SIDE-CHAIN BOND OTHER ATOMS  (A**2)  :  1048 ; 4.711 ; 6.074
REMARK   3   SIDE-CHAIN ANGLE OTHER ATOMS (A**2)  :  1362 ; 7.189 ; 8.666
REMARK   3   LONG RANGE B REFINED ATOMS (A**2)    :  2002 ; 9.834 ;57.614
REMARK   3   LONG RANGE B OTHER ATOMS (A**2)      :  1985 ; 9.789 ;57.448
REMARK   3
REMARK   3  NCS RESTRAINTS STATISTICS
REMARK   3   NUMBER OF NCS GROUPS : NULL
REMARK   3
REMARK   3  TWIN DETAILS
REMARK   3   NUMBER OF TWIN DOMAINS  : NULL
REMARK   3
REMARK   3
REMARK   3  TLS DETAILS
REMARK   3   NUMBER OF TLS GROUPS  : NULL
REMARK   3
REMARK   3
REMARK   3  BULK SOLVENT MODELLING.
REMARK   3   METHOD USED :  MASK
REMARK   3   PARAMETERS FOR MASK CALCULATION
REMARK   3   VDW PROBE RADIUS   :   1.20
REMARK   3   ION PROBE RADIUS   :   0.80
REMARK   3   SHRINKAGE RADIUS   :   0.80
REMARK   3
REMARK   3  OTHER REFINEMENT REMARKS:
REMARK   3  HYDROGENS HAVE BEEN ADDED IN THE RIDING POSITIONS
REMARK   3  U VALUES      : REFINED INDIVIDUALLY
REMARK   3
CRYST1   42.306   42.306  216.732  90.00  90.00  90.00 P 43 2 2                 


$$$$
Zx1761a_ligand
  PyMOL3.0          3D                             0

 28 31  0  0  0  0  0  0  0  0999 V2000
   -3.7860    5.5410  -14.5780 C   0  0  0  0  0  0  0  0  0  0  0  0
   -7.7870    4.6120  -10.6370 N   0  0  0  0  0  0  0  0  0  0  0  0
   -3.7460    4.8820  -19.6640 O   0  0  0  0  0  0  0  0  0  0  0  0
   -4.8460    5.3530  -15.6210 C   0  0  0  0  0  0  0  0  0  0  0  0
   -9.1270    1.7490   -8.8530 N   0  0  0  0  0  0  0  0  0  0  0  0
   -6.1510    4.9590  -12.1470 O   0  0  0  0  0  0  0  0  0  0  0  0
   -4.5000    5.4050  -16.9870 C   0  0  0  0  0  0  0  0  0  0  0  0
   -6.0860    5.1440  -15.2050 N   0  0  0  0  0  0  0  0  0  0  0  0
   -5.4600    5.2440  -17.9480 C   0  0  0  0  0  0  0  0  0  0  0  0
   -5.0880    5.3000  -19.4100 C   0  0  0  0  0  0  0  0  0  0  0  0
   -6.8100    5.0160  -17.5340 C   0  0  0  0  0  0  0  0  0  0  0  0
   -7.8770    4.8240  -18.4490 C   0  0  0  0  0  0  0  0  0  0  0  0
   -9.1420    4.6060  -17.9980 C   0  0  0  0  0  0  0  0  0  0  0  0
   -9.3950    4.5690  -16.6130 C   0  0  0  0  0  0  0  0  0  0  0  0
   -8.3960    4.7480  -15.6890 C   0  0  0  0  0  0  0  0  0  0  0  0
   -8.7320    4.6940  -14.2040 C   0  0  0  0  0  0  0  0  0  0  0  0
   -8.8190    6.0440  -13.5090 C   0  0  0  0  0  0  0  0  0  0  0  0
   -9.6350    7.0420  -14.0360 C   0  0  0  0  0  0  0  0  0  0  0  0
   -9.7450    8.2780  -13.4290 C   0  0  0  0  0  0  0  0  0  0  0  0
   -9.0510    8.5380  -12.2690 C   0  0  0  0  0  0  0  0  0  0  0  0
   -8.2440    7.5630  -11.7130 C   0  0  0  0  0  0  0  0  0  0  0  0
   -8.1120    6.3090  -12.3290 C   0  0  0  0  0  0  0  0  0  0  0  0
   -7.2500    5.2660  -11.6830 C   0  0  0  0  0  0  0  0  0  0  0  0
   -8.1980    5.2800   -9.3910 C   0  0  0  0  0  0  0  0  0  0  0  0
   -8.7460    4.1690   -8.5210 C   0  0  0  0  0  0  0  0  0  0  0  0
   -8.2360    2.8700   -9.1500 C   0  0  0  0  0  0  0  0  0  0  0  0
   -8.1300    3.1820  -10.6350 C   0  0  0  0  0  0  0  0  0  0  0  0
   -7.0810    4.9710  -16.1340 C   0  0  0  0  0  0  0  0  0  0  0  0
  1  4  1  0  0  0  0
  2 24  1  0  0  0  0
  2 27  1  0  0  0  0
  4  7  4  0  0  0  0
  4  8  4  0  0  0  0
  7  9  4  0  0  0  0
  9 10  1  0  0  0  0
  9 11  4  0  0  0  0
  3 10  1  0  0  0  0
 11 12  4  0  0  0  0
 11 28  4  0  0  0  0
 12 13  4  0  0  0  0
 13 14  4  0  0  0  0
 14 15  4  0  0  0  0
 15 16  1  0  0  0  0
 15 28  4  0  0  0  0
 16 17  1  0  0  0  0
 17 18  4  0  0  0  0
 17 22  4  0  0  0  0
 18 19  4  0  0  0  0
 19 20  4  0  0  0  0
 20 21  4  0  0  0  0
 21 22  4  0  0  0  0
 22 23  1  0  0  0  0
  2 23  1  0  0  0  0
  6 23  2  0  0  0  0
 24 25  1  0  0  0  0
 25 26  1  0  0  0  0
  5 26  1  0  0  0  0
 26 27  1  0  0  0  0
  8 28  4  0  0  0  0
M  END
>  <pdb_header>
COMPND    XX01ZVNS2B-x1761_B_301_XX01ZVNS2B-x1291+B+301+1


$$$$
Zx1837a
  PyMOL3.0          3D                             0

 22 24  0  0  0  0  0  0  0  0999 V2000
   -3.9290    5.7010  -15.6660 C   0  0  0  0  0  0  0  0  0  0  0  0
   -8.1660    3.2940  -12.1470 N   0  0  0  0  0  0  0  0  0  0  0  0
   -4.7820    5.0220  -20.6080 O   0  0  0  0  0  0  0  0  0  0  0  0
   -5.1410    5.3020  -16.4540 C   0  0  0  0  0  0  0  0  0  0  0  0
   -8.4290    1.6060   -8.9810 N   0  0  0  0  0  0  0  0  0  0  0  0
   -7.8110    2.2270  -14.0670 O   0  0  0  0  0  0  0  0  0  0  0  0
   -5.0670    5.2390  -17.8590 C   0  0  0  0  0  0  0  0  0  0  0  0
   -6.2510    5.0300  -15.7820 N   0  0  0  0  0  0  0  0  0  0  0  0
   -6.1650    4.8780  -18.5920 C   0  0  0  0  0  0  0  0  0  0  0  0
   -6.0930    4.7970  -20.0960 C   0  0  0  0  0  0  0  0  0  0  0  0
   -7.3810    4.5790  -17.9010 C   0  0  0  0  0  0  0  0  0  0  0  0
   -8.5710    4.1900  -18.5690 C   0  0  0  0  0  0  0  0  0  0  0  0
   -9.7020    3.9120  -17.8640 C   0  0  0  0  0  0  0  0  0  0  0  0
   -9.6950    3.9980  -16.4590 C   0  0  0  0  0  0  0  0  0  0  0  0
   -8.5740    4.3630  -15.7610 C   0  0  0  0  0  0  0  0  0  0  0  0
   -8.6380    4.4680  -14.2510 C   0  0  0  0  0  0  0  0  0  0  0  0
   -8.1740    3.2380  -13.4940 C   0  0  0  0  0  0  0  0  0  0  0  0
   -8.6020    4.4350  -11.3260 C   0  0  0  0  0  0  0  0  0  0  0  0
   -8.9710    3.7950  -10.0150 C   0  0  0  0  0  0  0  0  0  0  0  0
   -7.9510    2.6650   -9.8710 C   0  0  0  0  0  0  0  0  0  0  0  0
   -7.6790    2.1910  -11.3020 C   0  0  0  0  0  0  0  0  0  0  0  0
   -7.3800    4.6720  -16.4780 C   0  0  0  0  0  0  0  0  0  0  0  0
  1  4  1  0  0  0  0
  4  7  4  0  0  0  0
  4  8  4  0  0  0  0
  7  9  4  0  0  0  0
  9 10  1  0  0  0  0
  9 11  4  0  0  0  0
  3 10  1  0  0  0  0
 11 12  4  0  0  0  0
 12 13  4  0  0  0  0
 13 14  4  0  0  0  0
 14 15  4  0  0  0  0
 15 16  1  0  0  0  0
 15 22  4  0  0  0  0
 16 17  1  0  0  0  0
  2 17  1  0  0  0  0
  6 17  2  0  0  0  0
  2 18  1  0  0  0  0
 18 19  1  0  0  0  0
 19 20  1  0  0  0  0
  5 20  1  0  0  0  0
 20 21  1  0  0  0  0
  2 21  1  0  0  0  0
  8 22  4  0  0  0  0
 11 22  4  0  0  0  0
M  END
>  <pdb_header>
HEADER    ----                                    24-NOV-23   XXXX              
TITLE     ---                                                                   
REMARK   3
REMARK   3 REFINEMENT.
REMARK   3   PROGRAM     : REFMAC 5.8.0267   
REMARK   3   AUTHORS     : MURSHUDOV,SKUBAK,LEBEDEV,PANNU,
REMARK   3                 STEINER,NICHOLLS,WINN,LONG,VAGIN
REMARK   3
REMARK   3    REFINEMENT TARGET : MAXIMUM LIKELIHOOD
REMARK   3
REMARK   3  DATA USED IN REFINEMENT.
REMARK   3   RESOLUTION RANGE HIGH (ANGSTROMS) :   1.92
REMARK   3   RESOLUTION RANGE LOW  (ANGSTROMS) :  42.66
REMARK   3   DATA CUTOFF            (SIGMA(F)) : NONE
REMARK   3   COMPLETENESS FOR RANGE        (%) :  98.96
REMARK   3   NUMBER OF REFLECTIONS             :   15371
REMARK   3
REMARK   3  FIT TO DATA USED IN REFINEMENT.
REMARK   3   CROSS-VALIDATION METHOD          : THROUGHOUT
REMARK   3   FREE R VALUE TEST SET SELECTION  : RANDOM
REMARK   3   R VALUE     (WORKING + TEST SET) : 0.23138
REMARK   3   R VALUE            (WORKING SET) :  0.22858
REMARK   3   FREE R VALUE                     :  0.28398
REMARK   3   FREE R VALUE TEST SET SIZE   (%) :  4.8
REMARK   3   FREE R VALUE TEST SET COUNT      :   782
REMARK   3
REMARK   3  FIT IN THE HIGHEST RESOLUTION BIN.
REMARK   3   TOTAL NUMBER OF BINS USED           :      20
REMARK   3   BIN RESOLUTION RANGE HIGH           :    1.920
REMARK   3   BIN RESOLUTION RANGE LOW            :    1.970
REMARK   3   REFLECTION IN BIN     (WORKING SET) :      967
REMARK   3   BIN COMPLETENESS (WORKING+TEST) (%) :    88.83
REMARK   3   BIN R VALUE           (WORKING SET) :    0.529
REMARK   3   BIN FREE R VALUE SET COUNT          :       59
REMARK   3   BIN FREE R VALUE                    :    0.599
REMARK   3
REMARK   3  NUMBER OF NON-HYDROGEN ATOMS USED IN REFINEMENT.
REMARK   3   ALL ATOMS                :     1840
REMARK   3
REMARK   3  B VALUES.
REMARK   3   FROM WILSON PLOT           (A**2) : NULL
REMARK   3   MEAN B VALUE      (OVERALL, A**2) :  61.834
REMARK   3   OVERALL ANISOTROPIC B VALUE.
REMARK   3    B11 (A**2) :     3.12
REMARK   3    B22 (A**2) :     3.12
REMARK   3    B33 (A**2) :    -6.24
REMARK   3    B12 (A**2) :    -0.00
REMARK   3    B13 (A**2) :    -0.00
REMARK   3    B23 (A**2) :    -0.00
REMARK   3
REMARK   3  ESTIMATED OVERALL COORDINATE ERROR.
REMARK   3   ESU BASED ON R VALUE                            (A):   0.215
REMARK   3   ESU BASED ON FREE R VALUE                       (A):   0.192
REMARK   3   ESU BASED ON MAXIMUM LIKELIHOOD                 (A):   0.272
REMARK   3   ESU FOR B VALUES BASED ON MAXIMUM LIKELIHOOD (A**2):  11.047
REMARK   3
REMARK   3 CORRELATION COEFFICIENTS.
REMARK   3   CORRELATION COEFFICIENT FO-FC      :   0.968
REMARK   3   CORRELATION COEFFICIENT FO-FC FREE :   0.948
REMARK   3
REMARK   3  RMS DEVIATIONS FROM IDEAL VALUES        COUNT    RMS    WEIGHT
REMARK   3   BOND LENGTHS REFINED ATOMS        (A):  1926 ; 0.006 ; 0.013
REMARK   3   BOND LENGTHS OTHERS               (A):  1633 ; 0.001 ; 0.015
REMARK   3   BOND ANGLES REFINED ATOMS   (DEGREES):  2391 ; 1.409 ; 1.642
REMARK   3   BOND ANGLES OTHERS          (DEGREES):  3771 ; 1.169 ; 1.589
REMARK   3   TORSION ANGLES, PERIOD 1    (DEGREES):   229 ; 7.367 ; 5.000
REMARK   3   TORSION ANGLES, PERIOD 2    (DEGREES):    79 ;31.772 ;21.899
REMARK   3   TORSION ANGLES, PERIOD 3    (DEGREES):   274 ;14.910 ;15.000
REMARK   3   TORSION ANGLES, PERIOD 4    (DEGREES):    10 ;16.181 ;15.000
REMARK   3   CHIRAL-CENTER RESTRAINTS       (A**3):   215 ; 0.051 ; 0.200
REMARK   3   GENERAL PLANES REFINED ATOMS      (A):  2040 ; 0.006 ; 0.020
REMARK   3   GENERAL PLANES OTHERS             (A):   394 ; 0.001 ; 0.020
REMARK   3
REMARK   3  ISOTROPIC THERMAL FACTOR RESTRAINTS.     COUNT   RMS    WEIGHT
REMARK   3   MAIN-CHAIN BOND REFINED ATOMS  (A**2):   973 ; 4.128 ; 6.280
REMARK   3   MAIN-CHAIN BOND OTHER ATOMS    (A**2):   915 ; 4.254 ; 6.186
REMARK   3   MAIN-CHAIN ANGLE REFINED ATOMS (A**2):  1113 ; 6.180 ; 9.241
REMARK   3   MAIN-CHAIN ANGLE OTHER ATOMS (A**2)  :  1114 ; 6.178 ; 9.248
REMARK   3   SIDE-CHAIN BOND REFINED ATOMS  (A**2):   953 ; 4.498 ; 6.666
REMARK   3   SIDE-CHAIN BOND OTHER ATOMS  (A**2)  :   950 ; 4.505 ; 6.671
REMARK   3   SIDE-CHAIN ANGLE OTHER ATOMS (A**2)  :  1279 ; 7.115 ; 9.697
REMARK   3   LONG RANGE B REFINED ATOMS (A**2)    :  2022 ;11.794 ;69.914
REMARK   3   LONG RANGE B OTHER ATOMS (A**2)      :  1998 ;11.702 ;69.637
REMARK   3
REMARK   3  NCS RESTRAINTS STATISTICS
REMARK   3   NUMBER OF NCS GROUPS : NULL
REMARK   3
REMARK   3  TWIN DETAILS
REMARK   3   NUMBER OF TWIN DOMAINS  : NULL
REMARK   3
REMARK   3
REMARK   3  TLS DETAILS
REMARK   3   NUMBER OF TLS GROUPS  : NULL
REMARK   3
REMARK   3
REMARK   3  BULK SOLVENT MODELLING.
REMARK   3   METHOD USED :  MASK
REMARK   3   PARAMETERS FOR MASK CALCULATION
REMARK   3   VDW PROBE RADIUS   :   1.20
REMARK   3   ION PROBE RADIUS   :   0.80
REMARK   3   SHRINKAGE RADIUS   :   0.80
REMARK   3
REMARK   3  OTHER REFINEMENT REMARKS:
REMARK   3  HYDROGENS HAVE BEEN ADDED IN THE RIDING POSITIONS
REMARK   3  U VALUES      : REFINED INDIVIDUALLY
REMARK   3
CRYST1   42.620   42.620  216.850  90.00  90.00  90.00 P 43 2 2                 


$$$$
Zx1837a_ligand
  PyMOL3.0          3D                             0

 22 24  0  0  0  0  0  0  0  0999 V2000
   -3.9290    5.7010  -15.6660 C   0  0  0  0  0  0  0  0  0  0  0  0
   -8.1660    3.2940  -12.1470 N   0  0  0  0  0  0  0  0  0  0  0  0
   -4.7820    5.0220  -20.6080 O   0  0  0  0  0  0  0  0  0  0  0  0
   -5.1410    5.3020  -16.4540 C   0  0  0  0  0  0  0  0  0  0  0  0
   -8.4290    1.6060   -8.9810 N   0  0  0  0  0  0  0  0  0  0  0  0
   -7.8110    2.2270  -14.0670 O   0  0  0  0  0  0  0  0  0  0  0  0
   -5.0670    5.2390  -17.8590 C   0  0  0  0  0  0  0  0  0  0  0  0
   -6.2510    5.0300  -15.7820 N   0  0  0  0  0  0  0  0  0  0  0  0
   -6.1650    4.8780  -18.5920 C   0  0  0  0  0  0  0  0  0  0  0  0
   -6.0930    4.7970  -20.0960 C   0  0  0  0  0  0  0  0  0  0  0  0
   -7.3810    4.5790  -17.9010 C   0  0  0  0  0  0  0  0  0  0  0  0
   -8.5710    4.1900  -18.5690 C   0  0  0  0  0  0  0  0  0  0  0  0
   -9.7020    3.9120  -17.8640 C   0  0  0  0  0  0  0  0  0  0  0  0
   -9.6950    3.9980  -16.4590 C   0  0  0  0  0  0  0  0  0  0  0  0
   -8.5740    4.3630  -15.7610 C   0  0  0  0  0  0  0  0  0  0  0  0
   -8.6380    4.4680  -14.2510 C   0  0  0  0  0  0  0  0  0  0  0  0
   -8.1740    3.2380  -13.4940 C   0  0  0  0  0  0  0  0  0  0  0  0
   -8.6020    4.4350  -11.3260 C   0  0  0  0  0  0  0  0  0  0  0  0
   -8.9710    3.7950  -10.0150 C   0  0  0  0  0  0  0  0  0  0  0  0
   -7.9510    2.6650   -9.8710 C   0  0  0  0  0  0  0  0  0  0  0  0
   -7.6790    2.1910  -11.3020 C   0  0  0  0  0  0  0  0  0  0  0  0
   -7.3800    4.6720  -16.4780 C   0  0  0  0  0  0  0  0  0  0  0  0
  1  4  1  0  0  0  0
  2 18  1  0  0  0  0
  2 21  1  0  0  0  0
  4  7  4  0  0  0  0
  4  8  4  0  0  0  0
  7  9  4  0  0  0  0
  9 10  1  0  0  0  0
  9 11  4  0  0  0  0
  3 10  1  0  0  0  0
 11 12  4  0  0  0  0
 11 22  4  0  0  0  0
 12 13  4  0  0  0  0
 13 14  4  0  0  0  0
 14 15  4  0  0  0  0
 15 16  1  0  0  0  0
 15 22  4  0  0  0  0
 16 17  1  0  0  0  0
  2 17  1  0  0  0  0
  6 17  2  0  0  0  0
 18 19  1  0  0  0  0
 19 20  1  0  0  0  0
  5 20  1  0  0  0  0
 20 21  1  0  0  0  0
  8 22  4  0  0  0  0
M  END
>  <pdb_header>
COMPND    XX01ZVNS2B-x1837_B_301_XX01ZVNS2B-x1291+B+301+1


$$$$
Zx1838a
  PyMOL3.0          3D                             0

 23 25  0  0  0  0  0  0  0  0999 V2000
   -3.7700    5.8470  -15.6910 C   0  0  0  0  0  0  0  0  0  0  0  0
   -8.0480    3.5620  -12.0960 N   0  0  0  0  0  0  0  0  0  0  0  0
   -4.8190    5.5180  -20.6610 O   0  0  0  0  0  0  0  0  0  0  0  0
   -4.9840    5.4380  -16.4710 C   0  0  0  0  0  0  0  0  0  0  0  0
   -9.8990    1.6440   -9.0900 N   0  0  0  0  0  0  0  0  0  0  0  0
   -7.8470    2.3960  -13.9810 O   0  0  0  0  0  0  0  0  0  0  0  0
   -4.9170    5.3430  -17.8730 C   0  0  0  0  0  0  0  0  0  0  0  0
   -6.0930    5.1860  -15.7910 N   0  0  0  0  0  0  0  0  0  0  0  0
   -6.0230    4.9800  -18.5960 C   0  0  0  0  0  0  0  0  0  0  0  0
   -5.9610    4.8750  -20.1010 C   0  0  0  0  0  0  0  0  0  0  0  0
   -7.2360    4.7020  -17.8930 C   0  0  0  0  0  0  0  0  0  0  0  0
   -8.4340    4.3100  -18.5430 C   0  0  0  0  0  0  0  0  0  0  0  0
   -9.5610    4.0550  -17.8260 C   0  0  0  0  0  0  0  0  0  0  0  0
   -9.5440    4.1720  -16.4210 C   0  0  0  0  0  0  0  0  0  0  0  0
   -8.4150    4.5460  -15.7410 C   0  0  0  0  0  0  0  0  0  0  0  0
   -8.4590    4.6930  -14.2350 C   0  0  0  0  0  0  0  0  0  0  0  0
   -8.1000    3.4550  -13.4400 C   0  0  0  0  0  0  0  0  0  0  0  0
   -8.0340    4.8150  -11.3200 C   0  0  0  0  0  0  0  0  0  0  0  0
   -8.4390    4.3790   -9.9380 C   0  0  0  0  0  0  0  0  0  0  0  0
   -7.8750    2.9630   -9.8030 C   0  0  0  0  0  0  0  0  0  0  0  0
   -8.5680    2.1260   -8.7300 C   0  0  0  0  0  0  0  0  0  0  0  0
   -8.0040    2.3840  -11.2140 C   0  0  0  0  0  0  0  0  0  0  0  0
   -7.2250    4.8210  -16.4730 C   0  0  0  0  0  0  0  0  0  0  0  0
  1  4  1  0  0  0  0
  4  7  4  0  0  0  0
  4  8  4  0  0  0  0
  7  9  4  0  0  0  0
  9 10  1  0  0  0  0
  9 11  4  0  0  0  0
  3 10  1  0  0  0  0
 11 12  4  0  0  0  0
 12 13  4  0  0  0  0
 13 14  4  0  0  0  0
 14 15  4  0  0  0  0
 15 16  1  0  0  0  0
 15 23  4  0  0  0  0
 16 17  1  0  0  0  0
  2 17  1  0  0  0  0
  6 17  2  0  0  0  0
  2 18  1  0  0  0  0
 18 19  1  0  0  0  0
 19 20  1  0  0  0  0
 20 21  1  0  0  0  0
 20 22  1  0  0  0  0
  5 21  1  0  0  0  0
  2 22  1  0  0  0  0
  8 23  4  0  0  0  0
 11 23  4  0  0  0  0
M  END
>  <pdb_header>
HEADER    ----                                    24-NOV-23   XXXX              
TITLE     ---                                                                   
REMARK   3
REMARK   3 REFINEMENT.
REMARK   3   PROGRAM     : REFMAC 5.8.0267   
REMARK   3   AUTHORS     : MURSHUDOV,SKUBAK,LEBEDEV,PANNU,
REMARK   3                 STEINER,NICHOLLS,WINN,LONG,VAGIN
REMARK   3
REMARK   3    REFINEMENT TARGET : MAXIMUM LIKELIHOOD
REMARK   3
REMARK   3  DATA USED IN REFINEMENT.
REMARK   3   RESOLUTION RANGE HIGH (ANGSTROMS) :   1.83
REMARK   3   RESOLUTION RANGE LOW  (ANGSTROMS) :  54.09
REMARK   3   DATA CUTOFF            (SIGMA(F)) : NONE
REMARK   3   COMPLETENESS FOR RANGE        (%) :  91.51
REMARK   3   NUMBER OF REFLECTIONS             :   16249
REMARK   3
REMARK   3  FIT TO DATA USED IN REFINEMENT.
REMARK   3   CROSS-VALIDATION METHOD          : THROUGHOUT
REMARK   3   FREE R VALUE TEST SET SELECTION  : RANDOM
REMARK   3   R VALUE     (WORKING + TEST SET) : 0.24270
REMARK   3   R VALUE            (WORKING SET) :  0.23944
REMARK   3   FREE R VALUE                     :  0.30459
REMARK   3   FREE R VALUE TEST SET SIZE   (%) :  4.9
REMARK   3   FREE R VALUE TEST SET COUNT      :   838
REMARK   3
REMARK   3  FIT IN THE HIGHEST RESOLUTION BIN.
REMARK   3   TOTAL NUMBER OF BINS USED           :      20
REMARK   3   BIN RESOLUTION RANGE HIGH           :    1.830
REMARK   3   BIN RESOLUTION RANGE LOW            :    1.878
REMARK   3   REFLECTION IN BIN     (WORKING SET) :      288
REMARK   3   BIN COMPLETENESS (WORKING+TEST) (%) :    23.27
REMARK   3   BIN R VALUE           (WORKING SET) :    0.514
REMARK   3   BIN FREE R VALUE SET COUNT          :       22
REMARK   3   BIN FREE R VALUE                    :    0.557
REMARK   3
REMARK   3  NUMBER OF NON-HYDROGEN ATOMS USED IN REFINEMENT.
REMARK   3   ALL ATOMS                :     1954
REMARK   3
REMARK   3  B VALUES.
REMARK   3   FROM WILSON PLOT           (A**2) : NULL
REMARK   3   MEAN B VALUE      (OVERALL, A**2) :  54.396
REMARK   3   OVERALL ANISOTROPIC B VALUE.
REMARK   3    B11 (A**2) :     1.70
REMARK   3    B22 (A**2) :     1.70
REMARK   3    B33 (A**2) :    -3.41
REMARK   3    B12 (A**2) :    -0.00
REMARK   3    B13 (A**2) :    -0.00
REMARK   3    B23 (A**2) :    -0.00
REMARK   3
REMARK   3  ESTIMATED OVERALL COORDINATE ERROR.
REMARK   3   ESU BASED ON R VALUE                            (A):   0.221
REMARK   3   ESU BASED ON FREE R VALUE                       (A):   0.202
REMARK   3   ESU BASED ON MAXIMUM LIKELIHOOD                 (A):   0.278
REMARK   3   ESU FOR B VALUES BASED ON MAXIMUM LIKELIHOOD (A**2):  10.757
REMARK   3
REMARK   3 CORRELATION COEFFICIENTS.
REMARK   3   CORRELATION COEFFICIENT FO-FC      :   0.959
REMARK   3   CORRELATION COEFFICIENT FO-FC FREE :   0.933
REMARK   3
REMARK   3  RMS DEVIATIONS FROM IDEAL VALUES        COUNT    RMS    WEIGHT
REMARK   3   BOND LENGTHS REFINED ATOMS        (A):  2107 ; 0.007 ; 0.014
REMARK   3   BOND LENGTHS OTHERS               (A):  1724 ; 0.001 ; 0.015
REMARK   3   BOND ANGLES REFINED ATOMS   (DEGREES):  2555 ; 1.526 ; 1.639
REMARK   3   BOND ANGLES OTHERS          (DEGREES):  3994 ; 1.180 ; 1.595
REMARK   3   TORSION ANGLES, PERIOD 1    (DEGREES):   247 ; 7.524 ; 5.000
REMARK   3   TORSION ANGLES, PERIOD 2    (DEGREES):    85 ;33.989 ;22.471
REMARK   3   TORSION ANGLES, PERIOD 3    (DEGREES):   295 ;15.667 ;15.000
REMARK   3   TORSION ANGLES, PERIOD 4    (DEGREES):    10 ;19.189 ;15.000
REMARK   3   CHIRAL-CENTER RESTRAINTS       (A**3):   224 ; 0.058 ; 0.200
REMARK   3   GENERAL PLANES REFINED ATOMS      (A):  2190 ; 0.007 ; 0.020
REMARK   3   GENERAL PLANES OTHERS             (A):   412 ; 0.002 ; 0.020
REMARK   3
REMARK   3  ISOTROPIC THERMAL FACTOR RESTRAINTS.     COUNT   RMS    WEIGHT
REMARK   3   MAIN-CHAIN BOND REFINED ATOMS  (A**2):  1040 ; 3.970 ; 5.387
REMARK   3   MAIN-CHAIN BOND OTHER ATOMS    (A**2):   984 ; 4.061 ; 5.271
REMARK   3   MAIN-CHAIN ANGLE REFINED ATOMS (A**2):  1185 ; 6.270 ; 7.834
REMARK   3   MAIN-CHAIN ANGLE OTHER ATOMS (A**2)  :  1186 ; 6.275 ; 7.840
REMARK   3   SIDE-CHAIN BOND REFINED ATOMS  (A**2):  1067 ; 4.287 ; 6.063
REMARK   3   SIDE-CHAIN BOND OTHER ATOMS  (A**2)  :  1055 ; 4.296 ; 6.044
REMARK   3   SIDE-CHAIN ANGLE OTHER ATOMS (A**2)  :  1359 ; 6.731 ; 8.497
REMARK   3   LONG RANGE B REFINED ATOMS (A**2)    :  2110 ;15.135 ;58.504
REMARK   3   LONG RANGE B OTHER ATOMS (A**2)      :  2093 ;15.117 ;58.330
REMARK   3
REMARK   3  NCS RESTRAINTS STATISTICS
REMARK   3   NUMBER OF NCS GROUPS : NULL
REMARK   3
REMARK   3  TWIN DETAILS
REMARK   3   NUMBER OF TWIN DOMAINS  : NULL
REMARK   3
REMARK   3
REMARK   3  TLS DETAILS
REMARK   3   NUMBER OF TLS GROUPS  : NULL
REMARK   3
REMARK   3
REMARK   3  BULK SOLVENT MODELLING.
REMARK   3   METHOD USED :  MASK
REMARK   3   PARAMETERS FOR MASK CALCULATION
REMARK   3   VDW PROBE RADIUS   :   1.20
REMARK   3   ION PROBE RADIUS   :   0.80
REMARK   3   SHRINKAGE RADIUS   :   0.80
REMARK   3
REMARK   3  OTHER REFINEMENT REMARKS:
REMARK   3  HYDROGENS HAVE BEEN ADDED IN THE RIDING POSITIONS
REMARK   3  U VALUES      : REFINED INDIVIDUALLY
REMARK   3
CRYST1   42.581   42.581  216.368  90.00  90.00  90.00 P 43 2 2                 


$$$$
Zx1838a_ligand
  PyMOL3.0          3D                             0

 23 25  0  0  0  0  0  0  0  0999 V2000
   -3.7700    5.8470  -15.6910 C   0  0  0  0  0  0  0  0  0  0  0  0
   -8.0480    3.5620  -12.0960 N   0  0  0  0  0  0  0  0  0  0  0  0
   -4.8190    5.5180  -20.6610 O   0  0  0  0  0  0  0  0  0  0  0  0
   -4.9840    5.4380  -16.4710 C   0  0  0  0  0  0  0  0  0  0  0  0
   -9.8990    1.6440   -9.0900 N   0  0  0  0  0  0  0  0  0  0  0  0
   -7.8470    2.3960  -13.9810 O   0  0  0  0  0  0  0  0  0  0  0  0
   -4.9170    5.3430  -17.8730 C   0  0  0  0  0  0  0  0  0  0  0  0
   -6.0930    5.1860  -15.7910 N   0  0  0  0  0  0  0  0  0  0  0  0
   -6.0230    4.9800  -18.5960 C   0  0  0  0  0  0  0  0  0  0  0  0
   -5.9610    4.8750  -20.1010 C   0  0  0  0  0  0  0  0  0  0  0  0
   -7.2360    4.7020  -17.8930 C   0  0  0  0  0  0  0  0  0  0  0  0
   -8.4340    4.3100  -18.5430 C   0  0  0  0  0  0  0  0  0  0  0  0
   -9.5610    4.0550  -17.8260 C   0  0  0  0  0  0  0  0  0  0  0  0
   -9.5440    4.1720  -16.4210 C   0  0  0  0  0  0  0  0  0  0  0  0
   -8.4150    4.5460  -15.7410 C   0  0  0  0  0  0  0  0  0  0  0  0
   -8.4590    4.6930  -14.2350 C   0  0  0  0  0  0  0  0  0  0  0  0
   -8.1000    3.4550  -13.4400 C   0  0  0  0  0  0  0  0  0  0  0  0
   -8.0340    4.8150  -11.3200 C   0  0  0  0  0  0  0  0  0  0  0  0
   -8.4390    4.3790   -9.9380 C   0  0  0  0  0  0  0  0  0  0  0  0
   -7.8750    2.9630   -9.8030 C   0  0  0  0  0  0  0  0  0  0  0  0
   -8.5680    2.1260   -8.7300 C   0  0  0  0  0  0  0  0  0  0  0  0
   -8.0040    2.3840  -11.2140 C   0  0  0  0  0  0  0  0  0  0  0  0
   -7.2250    4.8210  -16.4730 C   0  0  0  0  0  0  0  0  0  0  0  0
  1  4  1  0  0  0  0
  2 18  1  0  0  0  0
  2 22  1  0  0  0  0
  4  7  4  0  0  0  0
  4  8  4  0  0  0  0
  7  9  4  0  0  0  0
  9 10  1  0  0  0  0
  9 11  4  0  0  0  0
  3 10  1  0  0  0  0
 11 12  4  0  0  0  0
 11 23  4  0  0  0  0
 12 13  4  0  0  0  0
 13 14  4  0  0  0  0
 14 15  4  0  0  0  0
 15 16  1  0  0  0  0
 15 23  4  0  0  0  0
 16 17  1  0  0  0  0
  2 17  1  0  0  0  0
  6 17  2  0  0  0  0
 18 19  1  0  0  0  0
 19 20  1  0  0  0  0
 20 21  1  0  0  0  0
 20 22  1  0  0  0  0
  5 21  1  0  0  0  0
  8 23  4  0  0  0  0
M  END
>  <pdb_header>
COMPND    XX01ZVNS2B-x1838_B_301_XX01ZVNS2B-x1291+B+301+1


$$$$
Zx2048a
  PyMOL3.0          3D                             0

 25 26  0  0  0  0  0  0  0  0999 V2000
   -4.9080    5.9440  -11.7030 C   0  0  0  0  0  0  0  0  0  0  0  0
   -6.7980    4.4470  -11.7050 N   0  0  0  0  0  0  0  0  0  0  0  0
   -4.8820    3.7370  -12.6140 O   0  0  0  0  0  0  0  0  0  0  0  0
   -5.5200    4.6240  -12.0480 C   0  0  0  0  0  0  0  0  0  0  0  0
   -8.9910    2.3370   -7.2500 N   0  0  0  0  0  0  0  0  0  0  0  0
   -7.8560    1.8730  -13.9230 O   0  0  0  0  0  0  0  0  0  0  0  0
   -7.4710    3.1790  -11.9370 C   0  0  0  0  0  0  0  0  0  0  0  0
   -8.1850    4.1100  -14.0830 N   0  0  0  0  0  0  0  0  0  0  0  0
   -5.0580    5.6260  -20.4980 O   0  0  0  0  0  0  0  0  0  0  0  0
   -8.6880    3.0490  -11.0230 C   0  0  0  0  0  0  0  0  0  0  0  0
   -6.0560    4.8360  -15.5840 N   0  0  0  0  0  0  0  0  0  0  0  0
   -8.3320    3.0760   -9.5450 C   0  0  0  0  0  0  0  0  0  0  0  0
   -9.3270    2.3250   -8.6770 C   0  0  0  0  0  0  0  0  0  0  0  0
   -7.8520    2.9840  -13.4160 C   0  0  0  0  0  0  0  0  0  0  0  0
   -8.3930    4.2570  -15.4600 C   0  0  0  0  0  0  0  0  0  0  0  0
   -9.5960    4.0640  -16.0930 C   0  0  0  0  0  0  0  0  0  0  0  0
   -9.7130    4.2420  -17.4800 C   0  0  0  0  0  0  0  0  0  0  0  0
   -8.6430    4.6140  -18.2320 C   0  0  0  0  0  0  0  0  0  0  0  0
   -7.3800    4.8330  -17.6280 C   0  0  0  0  0  0  0  0  0  0  0  0
   -6.2190    5.2160  -18.3680 C   0  0  0  0  0  0  0  0  0  0  0  0
   -6.3150    5.4200  -19.8610 C   0  0  0  0  0  0  0  0  0  0  0  0
   -5.0460    5.3980  -17.6870 C   0  0  0  0  0  0  0  0  0  0  0  0
   -4.9960    5.1960  -16.2910 C   0  0  0  0  0  0  0  0  0  0  0  0
   -3.7080    5.3850  -15.5490 C   0  0  0  0  0  0  0  0  0  0  0  0
   -7.2470    4.6520  -16.2230 C   0  0  0  0  0  0  0  0  0  0  0  0
  1  4  1  0  0  0  0
  2  4  1  0  0  0  0
  3  4  2  0  0  0  0
  2  7  1  0  0  0  0
  7 10  1  0  0  0  0
  7 14  1  0  0  0  0
 10 12  1  0  0  0  0
 12 13  1  0  0  0  0
  5 13  1  0  0  0  0
  6 14  2  0  0  0  0
  8 14  1  0  0  0  0
  8 15  1  0  0  0  0
 15 16  4  0  0  0  0
 16 17  4  0  0  0  0
 17 18  4  0  0  0  0
 18 19  4  0  0  0  0
 19 20  4  0  0  0  0
 19 25  4  0  0  0  0
 20 21  1  0  0  0  0
 20 22  4  0  0  0  0
  9 21  1  0  0  0  0
 22 23  4  0  0  0  0
 11 23  4  0  0  0  0
 23 24  1  0  0  0  0
 11 25  4  0  0  0  0
 15 25  4  0  0  0  0
M  END
>  <pdb_header>
HEADER    ----                                    09-JAN-24   XXXX              
TITLE     ---                                                                   
REMARK   3
REMARK   3 REFINEMENT.
REMARK   3   PROGRAM     : REFMAC 5.8.0267   
REMARK   3   AUTHORS     : MURSHUDOV,SKUBAK,LEBEDEV,PANNU,
REMARK   3                 STEINER,NICHOLLS,WINN,LONG,VAGIN
REMARK   3
REMARK   3    REFINEMENT TARGET : MAXIMUM LIKELIHOOD
REMARK   3
REMARK   3  DATA USED IN REFINEMENT.
REMARK   3   RESOLUTION RANGE HIGH (ANGSTROMS) :   1.55
REMARK   3   RESOLUTION RANGE LOW  (ANGSTROMS) :  54.23
REMARK   3   DATA CUTOFF            (SIGMA(F)) : NONE
REMARK   3   COMPLETENESS FOR RANGE        (%) :  74.39
REMARK   3   NUMBER OF REFLECTIONS             :   21270
REMARK   3
REMARK   3  FIT TO DATA USED IN REFINEMENT.
REMARK   3   CROSS-VALIDATION METHOD          : THROUGHOUT
REMARK   3   FREE R VALUE TEST SET SELECTION  : RANDOM
REMARK   3   R VALUE     (WORKING + TEST SET) : 0.25695
REMARK   3   R VALUE            (WORKING SET) :  0.25338
REMARK   3   FREE R VALUE                     :  0.32526
REMARK   3   FREE R VALUE TEST SET SIZE   (%) :  5.1
REMARK   3   FREE R VALUE TEST SET COUNT      :  1138
REMARK   3
REMARK   3  FIT IN THE HIGHEST RESOLUTION BIN.
REMARK   3   TOTAL NUMBER OF BINS USED           :      20
REMARK   3   BIN RESOLUTION RANGE HIGH           :    1.553
REMARK   3   BIN RESOLUTION RANGE LOW            :    1.594
REMARK   3   REFLECTION IN BIN     (WORKING SET) :       89
REMARK   3   BIN COMPLETENESS (WORKING+TEST) (%) :     4.26
REMARK   3   BIN R VALUE           (WORKING SET) :    0.735
REMARK   3   BIN FREE R VALUE SET COUNT          :        4
REMARK   3   BIN FREE R VALUE                    :    0.618
REMARK   3
REMARK   3  NUMBER OF NON-HYDROGEN ATOMS USED IN REFINEMENT.
REMARK   3   ALL ATOMS                :     2017
REMARK   3
REMARK   3  B VALUES.
REMARK   3   FROM WILSON PLOT           (A**2) : NULL
REMARK   3   MEAN B VALUE      (OVERALL, A**2) :  58.550
REMARK   3   OVERALL ANISOTROPIC B VALUE.
REMARK   3    B11 (A**2) :     2.58
REMARK   3    B22 (A**2) :     2.58
REMARK   3    B33 (A**2) :    -5.15
REMARK   3    B12 (A**2) :    -0.00
REMARK   3    B13 (A**2) :    -0.00
REMARK   3    B23 (A**2) :    -0.00
REMARK   3
REMARK   3  ESTIMATED OVERALL COORDINATE ERROR.
REMARK   3   ESU BASED ON R VALUE                            (A):   0.173
REMARK   3   ESU BASED ON FREE R VALUE                       (A):   0.175
REMARK   3   ESU BASED ON MAXIMUM LIKELIHOOD                 (A):   0.233
REMARK   3   ESU FOR B VALUES BASED ON MAXIMUM LIKELIHOOD (A**2):   7.284
REMARK   3
REMARK   3 CORRELATION COEFFICIENTS.
REMARK   3   CORRELATION COEFFICIENT FO-FC      :   0.962
REMARK   3   CORRELATION COEFFICIENT FO-FC FREE :   0.930
REMARK   3
REMARK   3  RMS DEVIATIONS FROM IDEAL VALUES        COUNT    RMS    WEIGHT
REMARK   3   BOND LENGTHS REFINED ATOMS        (A):  2249 ; 0.007 ; 0.014
REMARK   3   BOND LENGTHS OTHERS               (A):  1774 ; 0.001 ; 0.015
REMARK   3   BOND ANGLES REFINED ATOMS   (DEGREES):  2630 ; 1.518 ; 1.632
REMARK   3   BOND ANGLES OTHERS          (DEGREES):  4090 ; 1.124 ; 1.589
REMARK   3   TORSION ANGLES, PERIOD 1    (DEGREES):   250 ; 7.944 ; 5.000
REMARK   3   TORSION ANGLES, PERIOD 2    (DEGREES):    88 ;30.933 ;22.727
REMARK   3   TORSION ANGLES, PERIOD 3    (DEGREES):   295 ;16.233 ;15.000
REMARK   3   TORSION ANGLES, PERIOD 4    (DEGREES):    10 ;15.888 ;15.000
REMARK   3   CHIRAL-CENTER RESTRAINTS       (A**3):   236 ; 0.052 ; 0.200
REMARK   3   GENERAL PLANES REFINED ATOMS      (A):  2241 ; 0.007 ; 0.020
REMARK   3   GENERAL PLANES OTHERS             (A):   425 ; 0.001 ; 0.020
REMARK   3
REMARK   3  ISOTROPIC THERMAL FACTOR RESTRAINTS.     COUNT   RMS    WEIGHT
REMARK   3   MAIN-CHAIN BOND REFINED ATOMS  (A**2):  1120 ; 3.869 ; 5.962
REMARK   3   MAIN-CHAIN BOND OTHER ATOMS    (A**2):  1070 ; 3.955 ; 5.912
REMARK   3   MAIN-CHAIN ANGLE REFINED ATOMS (A**2):  1212 ; 6.352 ; 8.620
REMARK   3   MAIN-CHAIN ANGLE OTHER ATOMS (A**2)  :  1213 ; 6.350 ; 8.626
REMARK   3   SIDE-CHAIN BOND REFINED ATOMS  (A**2):  1129 ; 4.284 ; 6.609
REMARK   3   SIDE-CHAIN BOND OTHER ATOMS  (A**2)  :  1130 ; 4.282 ; 6.609
REMARK   3   SIDE-CHAIN ANGLE OTHER ATOMS (A**2)  :  1419 ; 6.959 ; 9.363
REMARK   3   LONG RANGE B REFINED ATOMS (A**2)    :  2047 ;12.488 ;60.678
REMARK   3   LONG RANGE B OTHER ATOMS (A**2)      :  2016 ;12.092 ;60.294
REMARK   3
REMARK   3  NCS RESTRAINTS STATISTICS
REMARK   3   NUMBER OF NCS GROUPS : NULL
REMARK   3
REMARK   3  TWIN DETAILS
REMARK   3   NUMBER OF TWIN DOMAINS  : NULL
REMARK   3
REMARK   3
REMARK   3  TLS DETAILS
REMARK   3   NUMBER OF TLS GROUPS  : NULL
REMARK   3
REMARK   3
REMARK   3  BULK SOLVENT MODELLING.
REMARK   3   METHOD USED :  MASK
REMARK   3   PARAMETERS FOR MASK CALCULATION
REMARK   3   VDW PROBE RADIUS   :   1.20
REMARK   3   ION PROBE RADIUS   :   0.80
REMARK   3   SHRINKAGE RADIUS   :   0.80
REMARK   3
REMARK   3  OTHER REFINEMENT REMARKS:
REMARK   3  HYDROGENS HAVE BEEN ADDED IN THE RIDING POSITIONS
REMARK   3  U VALUES      : REFINED INDIVIDUALLY
REMARK   3
CRYST1   42.545   42.545  216.933  90.00  90.00  90.00 P 43 2 2                 


$$$$
Zx2048a_ligand
  PyMOL3.0          3D                             0

 25 26  0  0  0  0  0  0  0  0999 V2000
   -4.9080    5.9440  -11.7030 C   0  0  0  0  0  0  0  0  0  0  0  0
   -6.7980    4.4470  -11.7050 N   0  0  0  0  0  0  0  0  0  0  0  0
   -4.8820    3.7370  -12.6140 O   0  0  0  0  0  0  0  0  0  0  0  0
   -5.5200    4.6240  -12.0480 C   0  0  0  0  0  0  0  0  0  0  0  0
   -8.9910    2.3370   -7.2500 N   0  0  0  0  0  0  0  0  0  0  0  0
   -7.8560    1.8730  -13.9230 O   0  0  0  0  0  0  0  0  0  0  0  0
   -7.4710    3.1790  -11.9370 C   0  0  0  0  0  0  0  0  0  0  0  0
   -8.1850    4.1100  -14.0830 N   0  0  0  0  0  0  0  0  0  0  0  0
   -5.0580    5.6260  -20.4980 O   0  0  0  0  0  0  0  0  0  0  0  0
   -8.6880    3.0490  -11.0230 C   0  0  0  0  0  0  0  0  0  0  0  0
   -6.0560    4.8360  -15.5840 N   0  0  0  0  0  0  0  0  0  0  0  0
   -8.3320    3.0760   -9.5450 C   0  0  0  0  0  0  0  0  0  0  0  0
   -9.3270    2.3250   -8.6770 C   0  0  0  0  0  0  0  0  0  0  0  0
   -7.8520    2.9840  -13.4160 C   0  0  0  0  0  0  0  0  0  0  0  0
   -8.3930    4.2570  -15.4600 C   0  0  0  0  0  0  0  0  0  0  0  0
   -9.5960    4.0640  -16.0930 C   0  0  0  0  0  0  0  0  0  0  0  0
   -9.7130    4.2420  -17.4800 C   0  0  0  0  0  0  0  0  0  0  0  0
   -8.6430    4.6140  -18.2320 C   0  0  0  0  0  0  0  0  0  0  0  0
   -7.3800    4.8330  -17.6280 C   0  0  0  0  0  0  0  0  0  0  0  0
   -6.2190    5.2160  -18.3680 C   0  0  0  0  0  0  0  0  0  0  0  0
   -6.3150    5.4200  -19.8610 C   0  0  0  0  0  0  0  0  0  0  0  0
   -5.0460    5.3980  -17.6870 C   0  0  0  0  0  0  0  0  0  0  0  0
   -4.9960    5.1960  -16.2910 C   0  0  0  0  0  0  0  0  0  0  0  0
   -3.7080    5.3850  -15.5490 C   0  0  0  0  0  0  0  0  0  0  0  0
   -7.2470    4.6520  -16.2230 C   0  0  0  0  0  0  0  0  0  0  0  0
  1  4  1  0  0  0  0
  2  7  1  0  0  0  0
  2  4  1  0  0  0  0
  3  4  2  0  0  0  0
  7 10  1  0  0  0  0
  7 14  1  0  0  0  0
  8 15  1  0  0  0  0
 10 12  1  0  0  0  0
 11 25  4  0  0  0  0
 12 13  1  0  0  0  0
  5 13  1  0  0  0  0
  6 14  2  0  0  0  0
  8 14  1  0  0  0  0
 15 16  4  0  0  0  0
 15 25  4  0  0  0  0
 16 17  4  0  0  0  0
 17 18  4  0  0  0  0
 18 19  4  0  0  0  0
 19 20  4  0  0  0  0
 19 25  4  0  0  0  0
 20 21  1  0  0  0  0
 20 22  4  0  0  0  0
  9 21  1  0  0  0  0
 22 23  4  0  0  0  0
 11 23  4  0  0  0  0
 23 24  1  0  0  0  0
M  END
>  <pdb_header>
COMPND    XX01ZVNS2B-x2048_B_301_XX01ZVNS2B-x1291+B+301+1


$$$$
Zx2094a
  PyMOL3.0          3D                             0

 24 27  0  0  0  0  0  0  0  0999 V2000
   -7.8830    3.3410  -13.9990 C   0  0  0  0  0  0  0  0  0  0  0  0
   -5.6350    5.6670  -19.6940 N   0  0  0  0  0  0  0  0  0  0  0  0
   -7.9730    2.1280  -14.1610 O   0  0  0  0  0  0  0  0  0  0  0  0
   -8.8230    4.9870  -17.4870 S   0  0  0  0  0  0  0  0  0  0  0  0
   -8.0940    4.2330  -15.1710 C   0  0  0  0  0  0  0  0  0  0  0  0
   -7.2330    5.2720  -15.4930 N   0  0  0  0  0  0  0  0  0  0  0  0
   -9.0960    4.0520  -16.0770 C   0  0  0  0  0  0  0  0  0  0  0  0
   -7.5450    3.8210  -12.7960 N   0  0  0  0  0  0  0  0  0  0  0  0
   -7.3800    5.6140  -16.7390 C   0  0  0  0  0  0  0  0  0  0  0  0
   -9.2500    2.0610   -8.5290 N   0  0  0  0  0  0  0  0  0  0  0  0
   -6.3840    6.4920  -17.4750 C   0  0  0  0  0  0  0  0  0  0  0  0
   -4.9390    6.0990  -17.1130 C   0  0  0  0  0  0  0  0  0  0  0  0
   -3.9140    6.6210  -18.1380 C   0  0  0  0  0  0  0  0  0  0  0  0
   -4.2560    6.1590  -19.5460 C   0  0  0  0  0  0  0  0  0  0  0  0
   -6.5960    6.5330  -18.9890 C   0  0  0  0  0  0  0  0  0  0  0  0
   -6.2810    3.4650  -12.1330 C   0  0  0  0  0  0  0  0  0  0  0  0
   -6.1470    4.5280  -11.0720 C   0  0  0  0  0  0  0  0  0  0  0  0
   -7.5830    4.7380  -10.6160 C   0  0  0  0  0  0  0  0  0  0  0  0
   -8.0400    3.9180   -9.4250 C   0  0  0  0  0  0  0  0  0  0  0  0
   -7.7190    4.3160   -8.1360 C   0  0  0  0  0  0  0  0  0  0  0  0
   -8.1540    3.5810   -7.0620 C   0  0  0  0  0  0  0  0  0  0  0  0
   -8.9060    2.4680   -7.3010 C   0  0  0  0  0  0  0  0  0  0  0  0
   -8.8180    2.7860   -9.5770 C   0  0  0  0  0  0  0  0  0  0  0  0
   -8.4150    4.6120  -11.9060 C   0  0  0  0  0  0  0  0  0  0  0  0
  1  5  1  0  0  0  0
  1  8  1  0  0  0  0
  2 15  1  0  0  0  0
  1  3  2  0  0  0  0
  4  9  4  0  0  0  0
  5  6  4  0  0  0  0
  5  7  4  0  0  0  0
  4  7  4  0  0  0  0
  8 16  1  0  0  0  0
  8 24  1  0  0  0  0
  6  9  4  0  0  0  0
  9 11  1  0  0  0  0
 10 23  4  0  0  0  0
 11 12  1  0  0  0  0
 11 15  1  0  0  0  0
 12 13  1  0  0  0  0
 13 14  1  0  0  0  0
  2 14  1  0  0  0  0
 16 17  1  0  0  0  0
 17 18  1  0  0  0  0
 18 19  1  0  0  0  0
 18 24  1  0  0  0  0
 19 20  4  0  0  0  0
 19 23  4  0  0  0  0
 20 21  4  0  0  0  0
 21 22  4  0  0  0  0
 10 22  4  0  0  0  0
M  END
>  <pdb_header>
HEADER    ----                                    23-FEB-23                     
TITLE     ---                                                                   
EXPDTA    X-RAY DIFFRACTION                                                     
REMARK --------------------- added by autoBUSTER ---------------------------------START
REMARK run at   = Fri Jan 19 13:06:45 GMT 2024
REMARK     in   = /dls/labxchem/data/lb32627/lb32627-65/processing/analysis/model_building/XX01ZVNS2B-x2094
REMARK     user = xau79897
REMARK     cmd  = \
REMARK            /dls_sw/apps/GPhL/BUSTER/20230726/autoBUSTER/bin/linux64/refine \
REMARK            -p \
REMARK            /dls/labxchem/data/lb32627/lb32627-65/processing/analysis/model_building/XX01ZVNS2B-x2094/cootOut/Refi
REMARK            -m \
REMARK            /dls/labxchem/data/lb32627/lb32627-65/processing/analysis/model_building/XX01ZVNS2B-x2094/XX01ZVNS2B-x
REMARK            -l \
REMARK            /dls/labxchem/data/lb32627/lb32627-65/processing/analysis/model_building/XX01ZVNS2B-x2094/ASAP-0015097
REMARK            -autoncs -M TLSbasic -B user -Gelly gelly.dat \
REMARK            StopOnGellySanityCheckError=no -d Refine_6
REMARK Files used:
REMARK   PDB              = Refine_6/pdbchk.pdb
REMARK   MTZ              = /dls/labxchem/data/lb32627/lb32627-65/processing/analysis/model_building/XX01ZVNS2B-x2094/XX
REMARK   Gelly commands       = /dls/labxchem/data/lb32627/lb32627-65/processing/analysis/model_building/XX01ZVNS2B-x209
REMARK output written to subdirectory = Refine_6
REMARK best refinement for F,SIGF with R/Rfree 0.2078/0.3168
REMARK header records are copied from input PDB file (apart from REMARK 3!)
REMARK --------------------- added by autoBUSTER -----------------------------------END
REMARK --------------------- added by autoBUSTER -------------------------------
REMARK run at   = Thu Dec 21 11:27:19 GMT 2023                                  
REMARK     in   = /dls/labxchem/data/lb32627/lb32627-65/processing/analysis/mode
REMARK     user = kyf22269                                                      
REMARK     cmd  = \                                                             
REMARK            /dls_sw/apps/GPhL/BUSTER/20211020/autoBUSTER/bin/linux64/refin
REMARK            -p \                                                          
REMARK            /dls/labxchem/data/lb32627/lb32627-65/processing/analysis/mode
REMARK            -m \                                                          
REMARK            /dls/labxchem/data/lb32627/lb32627-65/processing/analysis/mode
REMARK            -l \                                                          
REMARK            /dls/labxchem/data/lb32627/lb32627-65/processing/analysis/mode
REMARK            -autoncs -M TLSbasic -B user -Gelly gelly.dat -d Refine_5     
REMARK Files used:                                                              
REMARK   PDB              = Refine_5/pdbchk.pdb                                 
REMARK   MTZ              = /dls/labxchem/data/lb32627/lb32627-65/processing/ana
REMARK   Gelly commands       = /dls/labxchem/data/lb32627/lb32627-65/processing
REMARK output written to subdirectory = Refine_5                                
REMARK best refinement for F,SIGF with R/Rfree 0.2015/0.3096                    
REMARK header records are copied from input PDB file (apart from REMARK 3!)     
REMARK --------------------- added by autoBUSTER -------------------------------
REMARK --------------------- added by autoBUSTER -------------------------------
REMARK run at   = Wed Dec 20 14:53:32 GMT 2023                                  
REMARK     in   = /dls/labxchem/data/lb32627/lb32627-65/processing/analysis/mode
REMARK     user = kyf22269                                                      
REMARK     cmd  = \                                                             
REMARK            /dls_sw/apps/GPhL/BUSTER/20211020/autoBUSTER/bin/linux64/refin
REMARK            -p \                                                          
REMARK            /dls/labxchem/data/lb32627/lb32627-65/processing/analysis/mode
REMARK            -m \                                                          
REMARK            /dls/labxchem/data/lb32627/lb32627-65/processing/analysis/mode
REMARK            -l \                                                          
REMARK            /dls/labxchem/data/lb32627/lb32627-65/processing/analysis/mode
REMARK            -autoncs -M TLSbasic -B user -Gelly gelly.dat -d Refine_4     
REMARK Files used:                                                              
REMARK   PDB              = Refine_4/pdbchk.pdb                                 
REMARK   MTZ              = /dls/labxchem/data/lb32627/lb32627-65/processing/ana
REMARK   Gelly commands       = /dls/labxchem/data/lb32627/lb32627-65/processing
REMARK output written to subdirectory = Refine_4                                
REMARK best refinement for F,SIGF with R/Rfree 0.2034/0.3136                    
REMARK header records are copied from input PDB file (apart from REMARK 3!)     
REMARK --------------------- added by autoBUSTER -------------------------------
REMARK --------------------- added by autoBUSTER -------------------------------
REMARK run at   = Tue Dec 19 17:02:03 GMT 2023                                  
REMARK     in   = /dls/labxchem/data/lb32627/lb32627-65/processing/analysis/mode
REMARK     user = kyf22269                                                      
REMARK     cmd  = \                                                             
REMARK            /dls_sw/apps/GPhL/BUSTER/20211020/autoBUSTER/bin/linux64/refin
REMARK            -p \                                                          
REMARK            /dls/labxchem/data/lb32627/lb32627-65/processing/analysis/mode
REMARK            -m \                                                          
REMARK            /dls/labxchem/data/lb32627/lb32627-65/processing/analysis/mode
REMARK            -l \                                                          
REMARK            /dls/labxchem/data/lb32627/lb32627-65/processing/analysis/mode
REMARK            -autoncs -M TLSbasic -d Refine_3                              
REMARK Files used:                                                              
REMARK   PDB              = Refine_3/pdbchk.pdb                                 
REMARK   MTZ              = /dls/labxchem/data/lb32627/lb32627-65/processing/ana
REMARK output written to subdirectory = Refine_3                                
REMARK best refinement for F,SIGF with R/Rfree 0.2022/0.3129                    
REMARK header records are copied from input PDB file (apart from REMARK 3!)     
REMARK --------------------- added by autoBUSTER -------------------------------
REMARK --------------------- added by autoBUSTER -------------------------------
REMARK run at   = Mon Dec 18 16:48:27 GMT 2023                                  
REMARK     in   = /dls/labxchem/data/lb32627/lb32627-65/processing/analysis/mode
REMARK     user = kyf22269                                                      
REMARK     cmd  = \                                                             
REMARK            /dls_sw/apps/GPhL/BUSTER/20211020/autoBUSTER/bin/linux64/refin
REMARK            -p \                                                          
REMARK            /dls/labxchem/data/lb32627/lb32627-65/processing/analysis/mode
REMARK            -m \                                                          
REMARK            /dls/labxchem/data/lb32627/lb32627-65/processing/analysis/mode
REMARK            -l \                                                          
REMARK            /dls/labxchem/data/lb32627/lb32627-65/processing/analysis/mode
REMARK            -autoncs -M TLSbasic -d Refine_2                              
REMARK Files used:                                                              
REMARK   PDB              = Refine_2/pdbchk.pdb                                 
REMARK   MTZ              = /dls/labxchem/data/lb32627/lb32627-65/processing/ana
REMARK output written to subdirectory = Refine_2                                
REMARK best refinement for F,SIGF with R/Rfree 0.2029/0.3155                    
REMARK header records are copied from input PDB file (apart from REMARK 3!)     
REMARK --------------------- added by autoBUSTER -------------------------------
REMARK --------------------- added by autoBUSTER -------------------------------
REMARK run at   = Mon Dec 18 15:18:59 GMT 2023                                  
REMARK     in   = /dls/labxchem/data/lb32627/lb32627-65/processing/analysis/mode
REMARK     user = kyf22269                                                      
REMARK     cmd  = \                                                             
REMARK            /dls_sw/apps/GPhL/BUSTER/20211020/autoBUSTER/bin/linux64/refin
REMARK            -p \                                                          
REMARK            /dls/labxchem/data/lb32627/lb32627-65/processing/analysis/mode
REMARK            -m \                                                          
REMARK            /dls/labxchem/data/lb32627/lb32627-65/processing/analysis/mode
REMARK            -l \                                                          
REMARK            /dls/labxchem/data/lb32627/lb32627-65/processing/analysis/mode
REMARK            -autoncs -M TLSbasic StopOnGellySanityCheckError=no -d \      
REMARK            Refine_1                                                      
REMARK Files used:                                                              
REMARK   PDB              = Refine_1/pdbchk.pdb                                 
REMARK   MTZ              = /dls/labxchem/data/lb32627/lb32627-65/processing/ana
REMARK output written to subdirectory = Refine_1                                
REMARK best refinement for F,SIGF with R/Rfree 0.2042/0.3212                    
REMARK header records are copied from input PDB file (apart from REMARK 3!)     
REMARK --------------------- added by autoBUSTER -------------------------------
REMARK   2                                                            
REMARK   2 RESOLUTION.    2.16 ANGSTROMS.
REMARK   3
REMARK   3 REFINEMENT.
REMARK   3   PROGRAM     : BUSTER 2.10.4 (26-JUL-2023)
REMARK   3   AUTHORS     : BRICOGNE,BLANC,BRANDL,FLENSBURG,KELLER,
REMARK   3               : PACIOREK,ROVERSI,SHARFF,SMART,VONRHEIN,WOMACK;
REMARK   3               : MATTHEWS,TEN EYCK,TRONRUD
REMARK   3
REMARK   3  DATA USED IN REFINEMENT.
REMARK   3   RESOLUTION RANGE HIGH (ANGSTROMS) : 2.159
REMARK   3   RESOLUTION RANGE LOW  (ANGSTROMS) : 54.10
REMARK   3   DATA CUTOFF            (SIGMA(F)) : 0.000
REMARK   3   COMPLETENESS FOR RANGE        (%) : 41.5
REMARK   3   NUMBER OF REFLECTIONS             : 4837
REMARK   3
REMARK   3  FIT TO DATA USED IN REFINEMENT.
REMARK   3   CROSS-VALIDATION METHOD          : THROUGHOUT
REMARK   3   FREE R VALUE TEST SET SELECTION  : RANDOM
REMARK   3   R VALUE     (WORKING + TEST SET) : 0.2136
REMARK   3   R VALUE            (WORKING SET) : 0.2078
REMARK   3   FREE R VALUE                     : 0.3168
REMARK   3   FREE R VALUE TEST SET SIZE   (%) : 5.110
REMARK   3   FREE R VALUE TEST SET COUNT      : 247
REMARK   3   ESTIMATED ERROR OF FREE R VALUE  : NULL
REMARK   3
REMARK   3  FIT IN THE HIGHEST RESOLUTION BIN.
REMARK   3   TOTAL NUMBER OF BINS USED           : 13
REMARK   3   BIN RESOLUTION RANGE HIGH       (A) : 2.16
REMARK   3   BIN RESOLUTION RANGE LOW        (A) : 2.54
REMARK   3   BIN COMPLETENESS (WORKING+TEST) (%) : 9.30
REMARK   3   REFLECTIONS IN BIN   (WORKING+TEST) : 404
REMARK   3   BIN R VALUE          (WORKING+TEST) : 0.2657
REMARK   3   REFLECTIONS IN BIN    (WORKING SET) : 380
REMARK   3   BIN R VALUE           (WORKING SET) : 0.2584
REMARK   3   BIN FREE R VALUE                    : 0.3561
REMARK   3   BIN FREE R VALUE TEST SET SIZE  (%) : 5.94
REMARK   3   BIN FREE R VALUE TEST SET COUNT     : 24
REMARK   3   ESTIMATED ERROR OF BIN FREE R VALUE : NULL
REMARK   3
REMARK   3  NUMBER OF NON-HYDROGEN ATOMS USED IN REFINEMENT.
REMARK   3   PROTEIN ATOMS            : 1476
REMARK   3   NUCLEIC ACID ATOMS       : 0
REMARK   3   HETEROGEN ATOMS          : 28
REMARK   3   SOLVENT ATOMS            : 50
REMARK   3
REMARK   3  B VALUES.
REMARK   3   FROM WILSON PLOT           (A**2) : 33.92
REMARK   3   MEAN B VALUE      (OVERALL, A**2) : 41.28
REMARK   3   OVERALL ANISOTROPIC B VALUE.
REMARK   3    B11 (A**2) : 8.08260
REMARK   3    B22 (A**2) : 8.08260
REMARK   3    B33 (A**2) : -16.16520
REMARK   3    B12 (A**2) : 0.00000
REMARK   3    B13 (A**2) : 0.00000
REMARK   3    B23 (A**2) : 0.00000
REMARK   3
REMARK   3  ESTIMATED COORDINATE ERROR.
REMARK   3   ESD FROM LUZZATI PLOT                    (A) : 0.41
REMARK   3   DPI (BLOW EQ-9) BASED ON FREE R VALUE    (A) : 0.537
REMARK   3
REMARK   3   REFERENCES: BLOW, D. (2002) ACTA CRYST D58, 792-797
REMARK   3
REMARK   3  CORRELATION COEFFICIENTS.
REMARK   3   CORRELATION COEFFICIENT FO-FC      : 0.889
REMARK   3   CORRELATION COEFFICIENT FO-FC FREE : 0.811
REMARK   3
REMARK   3  X-RAY WEIGHT : 8.17
REMARK   3
REMARK   3  GEOMETRY FUNCTION.                                                  
REMARK   3   RESTRAINT LIBRARIES.                                               
REMARK   3    NUMBER OF LIBRARIES USED :   9                                    
REMARK   3    LIBRARY  1 : protgeo_eh99.dat (V1.6.4.20) 20220523  STANDARD      
REMARK   3                 AMINO ACID DICTIONARY. BONDS AND ANGLES FROM         
REMARK   3                 ENGH AND HUBER EH99. OTHER VALUES BASED ON           
REMARK   3                 PREVIOUS TNT OR TAKEN FROM CCP4. INCLUDES            
REMARK   3                 HYDROGEN ATOMS.                                      
REMARK   3    LIBRARY  2 : exoticaa.dat (V1.3.4.16) 20220523  COLLECTION        
REMARK   3                 OF NON-STANDARD AMINO ACIDS, MAINLY EH91             
REMARK   3                 WITHOUT IDEAL DISTANCE INFO                          
REMARK   3    LIBRARY  3 : nuclgeo.dat (V1.13.4.9) 20221011                     
REMARK   3    LIBRARY  4 : bcorrel.dat (V1.15.10.2) 20190616                    
REMARK   3    LIBRARY  5 : contact.dat (V1.15.12.10) 20191121                   
REMARK   3    LIBRARY  6 : idealdist_contact.dat (V1.3.4.14) 20230724           
REMARK   3                 IDEAL-DISTANCE CONTACT TERM DATA AS USED IN          
REMARK   3                 PROLSQ. VALUES USED HERE ARE BASEd ON DATA           
REMARK   3                 HARVESTING OF PDB AS OF 20190109                     
REMARK   3    LIBRARY  7 : restraints for LIG from cif dictionary               
REMARK   3                 ASAP-0015097-001.cif                                 
REMARK   3    LIBRARY  8 : restraints for DMS (DIMETHYL SULFOXIDE) from         
REMARK   3                 cif dictionary DMS.cif; generated by grade2          
REMARK   3                 version 1.1.0a7 from                                 
REMARK   3                 PDB_chemical_components_definition_file              
REMARK   3                 ftp://ftp.ebi.ac.uk/pub/databases/msd/pdbechem_v     
REMARK   3                 2/D/DMS/DMS.cif using RDKit 2021.03.4                
REMARK   3                 ((DatabaseID PDB-DMS))                               
REMARK   3    LIBRARY  9 : assume.dat (V1.9.4.3) 20221011                       
REMARK   3                                                                      
REMARK   3   NUMBER OF GEOMETRIC FUNCTION TERMS DEFINED : 15                    
REMARK   3   TERM                          COUNT    WEIGHT   FUNCTION.          
REMARK   3    BOND LENGTHS              :   1557 ;   2.00 ;  HARMONIC           
REMARK   3    BOND ANGLES               :   2116 ;   2.00 ;  HARMONIC           
REMARK   3    TORSION ANGLES            :    542 ;   2.00 ;  SINUSOIDAL         
REMARK   3    TRIGONAL CARBON PLANES    :   NULL ;   NULL ;  NULL               
REMARK   3    GENERAL PLANES            :    269 ;   5.00 ;  HARMONIC           
REMARK   3    ISOTROPIC THERMAL FACTORS :   1530 ;  10.00 ;  HARMONIC           
REMARK   3    BAD NON-BONDED CONTACTS   :   NULL ;   NULL ;  NULL               
REMARK   3    IMPROPER TORSIONS         :   NULL ;   NULL ;  NULL               
REMARK   3    PSEUDOROTATION ANGLES     :   NULL ;   NULL ;  NULL               
REMARK   3    CHIRAL IMPROPER TORSION   :    194 ;   5.00 ;  SEMIHARMONIC       
REMARK   3    SUM OF OCCUPANCIES        :   NULL ;   NULL ;  NULL               
REMARK   3    UTILITY DISTANCES         :   NULL ;   NULL ;  NULL               
REMARK   3    UTILITY ANGLES            :   NULL ;   NULL ;  NULL               
REMARK   3    UTILITY TORSION           :   NULL ;   NULL ;  NULL               
REMARK   3    IDEAL-DIST CONTACT TERM   :   1116 ;   4.00 ;  SEMIHARMONIC       
REMARK   3                                                                      
REMARK   3   RMS DEVIATIONS FROM IDEAL VALUES.                                  
REMARK   3   BOND LENGTHS                       (A) : 0.008                     
REMARK   3   BOND ANGLES                  (DEGREES) : 0.96                      
REMARK   3   PEPTIDE OMEGA TORSION ANGLES (DEGREES) : 2.80                      
REMARK   3   OTHER TORSION ANGLES         (DEGREES) : 19.84                     
REMARK   3                                                                      
REMARK   3   SIMILARITY.                                                        
REMARK   3    NCS.                                                              
REMARK   3     NCS METHOD: NONE                                                 
REMARK   3    TARGET RESTRAINTS.                                                
REMARK   3     TARGET REPRESENTATION : NONE                                     
REMARK   3     TARGET STRUCTURE : NULL                                          
REMARK   3                                                                      
REMARK   3  TLS DETAILS.                                                        
REMARK   3   NUMBER OF TLS GROUPS  :            2                               
REMARK   3                                                                      
REMARK   3   TLS GROUP :            1                                           
REMARK   3    SET : { A|* }                                                     
REMARK   3    ORIGIN FOR THE GROUP (A):  -13.4531   -2.1256  -19.1630           
REMARK   3    T TENSOR                                                          
REMARK   3     T11:   -0.0418 T22:    0.0061                                    
REMARK   3     T33:   -0.3853 T12:    0.1670                                    
REMARK   3     T13:    0.1549 T23:    0.1201                                    
REMARK   3    L TENSOR                                                          
REMARK   3     L11:    4.5744 L22:    3.8711                                    
REMARK   3     L33:    3.5287 L12:   -1.8945                                    
REMARK   3     L13:    0.2899 L23:    1.5630                                    
REMARK   3    S TENSOR                                                          
REMARK   3     S11:    0.3835 S12:    0.3702 S13:    0.1596                     
REMARK   3     S21:   -0.4936 S22:   -0.2571 S23:   -0.5196                     
REMARK   3     S31:   -0.5053 S32:    0.4010 S33:   -0.1264                     
REMARK   3                                                                      
REMARK   3   TLS GROUP :            2                                           
REMARK   3    SET : { B|* }                                                     
REMARK   3    ORIGIN FOR THE GROUP (A):  -18.3272    0.4291  -15.6738           
REMARK   3    T TENSOR                                                          
REMARK   3     T11:    0.1627 T22:    0.0182                                    
REMARK   3     T33:   -0.2371 T12:    0.2169                                    
REMARK   3     T13:    0.0577 T23:    0.0613                                    
REMARK   3    L TENSOR                                                          
REMARK   3     L11:    0.6802 L22:    1.4044                                    
REMARK   3     L33:    3.6062 L12:   -0.8534                                    
REMARK   3     L13:    0.9935 L23:    0.3007                                    
REMARK   3    S TENSOR                                                          
REMARK   3     S11:    0.3509 S12:    0.2146 S13:    0.1858                     
REMARK   3     S21:   -0.2034 S22:   -0.3389 S23:    0.0236                     
REMARK   3     S31:   -0.0482 S32:    0.1128 S33:   -0.0120                     
REMARK   3                                                                      
REMARK   3  REFINEMENT NOTES.                                                   
REMARK   3   NUMBER OF REFINEMENT NOTES :   1                                   
REMARK   3   NOTE   1 : IDEAL-DIST CONTACT TERM CONTACT SETUP. ALL ATOMS        
REMARK   3               HAVE CCP4 ATOM TYPE FROM LIBRARY                       
REMARK   3
REMARK   3  OTHER REFINEMENT REMARKS: NULL
REMARK   3
REMARK 290                                                            
REMARK 290 CRYSTALLOGRAPHIC SYMMETRY                                  
REMARK 290 SYMMETRY OPERATORS FOR SPACE GROUP: P 43 2 2               
REMARK 290                                                            
REMARK 290      SYMOP   SYMMETRY                                      
REMARK 290     NNNMMM   OPERATOR                                      
REMARK 290       1555   X,Y,Z                                         
REMARK 290       2555   -X,-Y,1/2+Z                                   
REMARK 290       3555   -Y,X,3/4+Z                                    
REMARK 290       4555   Y,-X,1/4+Z                                    
REMARK 290       5555   -X,Y,-Z                                       
REMARK 290       6555   X,-Y,1/2-Z                                    
REMARK 290       7555   Y,X,1/4-Z                                     
REMARK 290       8555   -Y,-X,3/4-Z                                   
REMARK 290                                                            
REMARK 290     WHERE NNN -> OPERATOR NUMBER                           
REMARK 290           MMM -> TRANSLATION VECTOR                        
REMARK 290                                                            
REMARK 290 CRYSTALLOGRAPHIC SYMMETRY TRANSFORMATIONS                  
REMARK 290 THE FOLLOWING TRANSFORMATIONS OPERATE ON THE ATOM/HETATM   
REMARK 290 RECORDS IN THIS ENTRY TO PRODUCE CRYSTALLOGRAPHICALLY      
REMARK 290 RELATED MOLECULES.                                         
REMARK 290   SMTRY1   1  1.000000  0.000000  0.000000        0.00000
REMARK 290   SMTRY2   1  0.000000  1.000000  0.000000        0.00000
REMARK 290   SMTRY3   1  0.000000  0.000000  1.000000        0.00000
REMARK 290   SMTRY1   2 -1.000000  0.000000  0.000000        0.00000
REMARK 290   SMTRY2   2  0.000000 -1.000000  0.000000        0.00000
REMARK 290   SMTRY3   2  0.000000  0.000000  1.000000      108.20400
REMARK 290   SMTRY1   3  0.000000 -1.000000  0.000000        0.00000
REMARK 290   SMTRY2   3  1.000000  0.000000  0.000000        0.00000
REMARK 290   SMTRY3   3  0.000000  0.000000  1.000000      162.30600
REMARK 290   SMTRY1   4  0.000000  1.000000  0.000000        0.00000
REMARK 290   SMTRY2   4 -1.000000  0.000000  0.000000        0.00000
REMARK 290   SMTRY3   4  0.000000  0.000000  1.000000       54.10200
REMARK 290   SMTRY1   5 -1.000000  0.000000  0.000000        0.00000
REMARK 290   SMTRY2   5  0.000000  1.000000  0.000000        0.00000
REMARK 290   SMTRY3   5  0.000000  0.000000 -1.000000        0.00000
REMARK 290   SMTRY1   6  1.000000  0.000000  0.000000        0.00000
REMARK 290   SMTRY2   6  0.000000 -1.000000  0.000000        0.00000
REMARK 290   SMTRY3   6  0.000000  0.000000 -1.000000      108.20400
REMARK 290   SMTRY1   7  0.000000  1.000000  0.000000        0.00000
REMARK 290   SMTRY2   7  1.000000  0.000000  0.000000        0.00000
REMARK 290   SMTRY3   7  0.000000  0.000000 -1.000000       54.10200
REMARK 290   SMTRY1   8  0.000000 -1.000000  0.000000        0.00000
REMARK 290   SMTRY2   8 -1.000000  0.000000  0.000000        0.00000
REMARK 290   SMTRY3   8  0.000000  0.000000 -1.000000      162.30600
REMARK 290                                                            
REMARK 290 REMARK: NULL                                               
CRYST1   42.772   42.772  216.408  90.00  90.00  90.00 P 43 2 2                 


$$$$
Zx2094a_ligand
  PyMOL3.0          3D                             0

 24 27  0  0  0  0  0  0  0  0999 V2000
   -7.8830    3.3410  -13.9990 C   0  0  0  0  0  0  0  0  0  0  0  0
   -5.6350    5.6670  -19.6940 N   0  0  0  0  0  0  0  0  0  0  0  0
   -7.9730    2.1280  -14.1610 O   0  0  0  0  0  0  0  0  0  0  0  0
   -8.8230    4.9870  -17.4870 S   0  0  0  0  0  0  0  0  0  0  0  0
   -8.0940    4.2330  -15.1710 C   0  0  0  0  0  0  0  0  0  0  0  0
   -7.2330    5.2720  -15.4930 N   0  0  0  0  0  0  0  0  0  0  0  0
   -9.0960    4.0520  -16.0770 C   0  0  0  0  0  0  0  0  0  0  0  0
   -7.5450    3.8210  -12.7960 N   0  0  0  0  0  0  0  0  0  0  0  0
   -7.3800    5.6140  -16.7390 C   0  0  0  0  0  0  0  0  0  0  0  0
   -9.2500    2.0610   -8.5290 N   0  0  0  0  0  0  0  0  0  0  0  0
   -6.3840    6.4920  -17.4750 C   0  0  0  0  0  0  0  0  0  0  0  0
   -4.9390    6.0990  -17.1130 C   0  0  0  0  0  0  0  0  0  0  0  0
   -3.9140    6.6210  -18.1380 C   0  0  0  0  0  0  0  0  0  0  0  0
   -4.2560    6.1590  -19.5460 C   0  0  0  0  0  0  0  0  0  0  0  0
   -6.5960    6.5330  -18.9890 C   0  0  0  0  0  0  0  0  0  0  0  0
   -6.2810    3.4650  -12.1330 C   0  0  0  0  0  0  0  0  0  0  0  0
   -6.1470    4.5280  -11.0720 C   0  0  0  0  0  0  0  0  0  0  0  0
   -7.5830    4.7380  -10.6160 C   0  0  0  0  0  0  0  0  0  0  0  0
   -8.0400    3.9180   -9.4250 C   0  0  0  0  0  0  0  0  0  0  0  0
   -7.7190    4.3160   -8.1360 C   0  0  0  0  0  0  0  0  0  0  0  0
   -8.1540    3.5810   -7.0620 C   0  0  0  0  0  0  0  0  0  0  0  0
   -8.9060    2.4680   -7.3010 C   0  0  0  0  0  0  0  0  0  0  0  0
   -8.8180    2.7860   -9.5770 C   0  0  0  0  0  0  0  0  0  0  0  0
   -8.4150    4.6120  -11.9060 C   0  0  0  0  0  0  0  0  0  0  0  0
  1  5  1  0  0  0  0
  1  8  1  0  0  0  0
  2 15  1  0  0  0  0
  1  3  2  0  0  0  0
  4  9  4  0  0  0  0
  5  6  4  0  0  0  0
  5  7  4  0  0  0  0
  4  7  4  0  0  0  0
  8 16  1  0  0  0  0
  8 24  1  0  0  0  0
  6  9  4  0  0  0  0
  9 11  1  0  0  0  0
 10 23  4  0  0  0  0
 11 12  1  0  0  0  0
 11 15  1  0  0  0  0
 12 13  1  0  0  0  0
 13 14  1  0  0  0  0
  2 14  1  0  0  0  0
 16 17  1  0  0  0  0
 17 18  1  0  0  0  0
 18 19  1  0  0  0  0
 18 24  1  0  0  0  0
 19 20  4  0  0  0  0
 19 23  4  0  0  0  0
 20 21  4  0  0  0  0
 21 22  4  0  0  0  0
 10 22  4  0  0  0  0
M  END
>  <pdb_header>
COMPND    XX01ZVNS2B-x2094_B_301_XX01ZVNS2B-x1291+B+301+1


$$$$
Zx2119a
  PyMOL3.0          3D                             0

 27 29  0  0  0  0  0  0  0  0999 V2000
   -6.2560    4.9420   -6.8010 C   0  0  0  0  0  0  0  0  0  0  0  0
   -6.9440    4.2700   -5.6910 N   0  0  0  0  0  0  0  0  0  0  0  0
   -6.7170    5.1970  -15.1510 O   0  0  0  0  0  0  0  0  0  0  0  0
   -6.9070    4.6230   -8.1260 C   0  0  0  0  0  0  0  0  0  0  0  0
   -8.4310    4.0330  -14.2760 N   0  0  0  0  0  0  0  0  0  0  0  0
   -7.0410    1.6510  -13.3980 O   0  0  0  0  0  0  0  0  0  0  0  0
   -7.8380    5.4760   -8.6980 C   0  0  0  0  0  0  0  0  0  0  0  0
   -5.4860    3.0870  -12.6150 N   0  0  0  0  0  0  0  0  0  0  0  0
   -8.4480    5.1540   -9.8990 C   0  0  0  0  0  0  0  0  0  0  0  0
   -8.2170    3.9340  -10.5130 C   0  0  0  0  0  0  0  0  0  0  0  0
   -8.8170    3.6220  -11.8600 C   0  0  0  0  0  0  0  0  0  0  0  0
   -7.8020    3.8880  -12.9830 C   0  0  0  0  0  0  0  0  0  0  0  0
   -7.7800    4.5960  -15.3010 C   0  0  0  0  0  0  0  0  0  0  0  0
   -8.4010    4.4730  -16.6640 C   0  0  0  0  0  0  0  0  0  0  0  0
   -7.6440    4.7580  -17.7940 C   0  0  0  0  0  0  0  0  0  0  0  0
   -8.2080    4.6520  -19.0530 C   0  0  0  0  0  0  0  0  0  0  0  0
   -9.5320    4.3040  -19.1980 C   0  0  0  0  0  0  0  0  0  0  0  0
  -10.2980    4.0470  -18.0840 C   0  0  0  0  0  0  0  0  0  0  0  0
   -9.7360    4.1270  -16.8230 C   0  0  0  0  0  0  0  0  0  0  0  0
   -6.7390    2.7880  -13.0180 C   0  0  0  0  0  0  0  0  0  0  0  0
   -4.9860    4.4330  -12.2740 C   0  0  0  0  0  0  0  0  0  0  0  0
   -3.4680    4.4940  -12.2120 C   0  0  0  0  0  0  0  0  0  0  0  0
   -2.8280    3.7210  -13.3580 C   0  0  0  0  0  0  0  0  0  0  0  0
   -3.2880    2.2660  -13.3870 C   0  0  0  0  0  0  0  0  0  0  0  0
   -4.4870    2.0170  -12.4850 C   0  0  0  0  0  0  0  0  0  0  0  0
   -7.2740    3.0940   -9.9470 C   0  0  0  0  0  0  0  0  0  0  0  0
   -6.6210    3.4340   -8.7760 C   0  0  0  0  0  0  0  0  0  0  0  0
  1  4  1  0  0  0  0
  1  2  1  0  0  0  0
  4  7  4  0  0  0  0
  4 27  4  0  0  0  0
  5 13  1  0  0  0  0
  7  9  4  0  0  0  0
  8 21  1  0  0  0  0
  8 25  1  0  0  0  0
  9 10  4  0  0  0  0
 10 11  1  0  0  0  0
 10 26  4  0  0  0  0
 11 12  1  0  0  0  0
  5 12  1  0  0  0  0
 12 20  1  0  0  0  0
  3 13  2  0  0  0  0
 13 14  1  0  0  0  0
 14 15  4  0  0  0  0
 14 19  4  0  0  0  0
 15 16  4  0  0  0  0
 16 17  4  0  0  0  0
 17 18  4  0  0  0  0
 18 19  4  0  0  0  0
  6 20  2  0  0  0  0
  8 20  1  0  0  0  0
 21 22  1  0  0  0  0
 22 23  1  0  0  0  0
 23 24  1  0  0  0  0
 24 25  1  0  0  0  0
 26 27  4  0  0  0  0
M  END
>  <pdb_header>
HEADER    ----                                    23-FEB-23                     
TITLE     ---                                                                   
EXPDTA    X-RAY DIFFRACTION                                                     
REMARK --------------------- added by autoBUSTER ---------------------------------START
REMARK run at   = Thu Dec 21 11:34:13 GMT 2023
REMARK     in   = /dls/labxchem/data/lb32627/lb32627-65/processing/analysis/model_building/XX01ZVNS2B-x2119
REMARK     user = kyf22269
REMARK     cmd  = \
REMARK            /dls_sw/apps/GPhL/BUSTER/20211020/autoBUSTER/bin/linux64/refine \
REMARK            -p \
REMARK            /dls/labxchem/data/lb32627/lb32627-65/processing/analysis/model_building/XX01ZVNS2B-x2119/cootOut/Refi
REMARK            -m \
REMARK            /dls/labxchem/data/lb32627/lb32627-65/processing/analysis/model_building/XX01ZVNS2B-x2119/XX01ZVNS2B-x
REMARK            -l \
REMARK            /dls/labxchem/data/lb32627/lb32627-65/processing/analysis/model_building/XX01ZVNS2B-x2119/ASAP-0015164
REMARK            -autoncs -M TLSbasic -B user -Gelly gelly.dat -d Refine_4
REMARK Files used:
REMARK   PDB              = Refine_4/pdbchk.pdb
REMARK   MTZ              = /dls/labxchem/data/lb32627/lb32627-65/processing/analysis/model_building/XX01ZVNS2B-x2119/XX
REMARK   Gelly commands       = /dls/labxchem/data/lb32627/lb32627-65/processing/analysis/model_building/XX01ZVNS2B-x211
REMARK output written to subdirectory = Refine_4
REMARK best refinement for F,SIGF with R/Rfree 0.2483/0.2724
REMARK header records are copied from input PDB file (apart from REMARK 3!)
REMARK --------------------- added by autoBUSTER -----------------------------------END
REMARK --------------------- added by autoBUSTER -------------------------------
REMARK run at   = Wed Dec 20 15:00:58 GMT 2023                                  
REMARK     in   = /dls/labxchem/data/lb32627/lb32627-65/processing/analysis/mode
REMARK     user = kyf22269                                                      
REMARK     cmd  = \                                                             
REMARK            /dls_sw/apps/GPhL/BUSTER/20211020/autoBUSTER/bin/linux64/refin
REMARK            -p \                                                          
REMARK            /dls/labxchem/data/lb32627/lb32627-65/processing/analysis/mode
REMARK            -m \                                                          
REMARK            /dls/labxchem/data/lb32627/lb32627-65/processing/analysis/mode
REMARK            -l \                                                          
REMARK            /dls/labxchem/data/lb32627/lb32627-65/processing/analysis/mode
REMARK            -autoncs -M TLSbasic -B user -Gelly gelly.dat -d Refine_3     
REMARK Files used:                                                              
REMARK   PDB              = Refine_3/pdbchk.pdb                                 
REMARK   MTZ              = /dls/labxchem/data/lb32627/lb32627-65/processing/ana
REMARK   Gelly commands       = /dls/labxchem/data/lb32627/lb32627-65/processing
REMARK output written to subdirectory = Refine_3                                
REMARK best refinement for F,SIGF with R/Rfree 0.2480/0.2771                    
REMARK header records are copied from input PDB file (apart from REMARK 3!)     
REMARK --------------------- added by autoBUSTER -------------------------------
REMARK --------------------- added by autoBUSTER -------------------------------
REMARK run at   = Tue Dec 19 17:15:13 GMT 2023                                  
REMARK     in   = /dls/labxchem/data/lb32627/lb32627-65/processing/analysis/mode
REMARK     user = kyf22269                                                      
REMARK     cmd  = \                                                             
REMARK            /dls_sw/apps/GPhL/BUSTER/20211020/autoBUSTER/bin/linux64/refin
REMARK            -p \                                                          
REMARK            /dls/labxchem/data/lb32627/lb32627-65/processing/analysis/mode
REMARK            -m \                                                          
REMARK            /dls/labxchem/data/lb32627/lb32627-65/processing/analysis/mode
REMARK            -l \                                                          
REMARK            /dls/labxchem/data/lb32627/lb32627-65/processing/analysis/mode
REMARK            -autoncs -M TLSbasic -d Refine_2                              
REMARK Files used:                                                              
REMARK   PDB              = Refine_2/pdbchk.pdb                                 
REMARK   MTZ              = /dls/labxchem/data/lb32627/lb32627-65/processing/ana
REMARK output written to subdirectory = Refine_2                                
REMARK best refinement for F,SIGF with R/Rfree 0.2505/0.2899                    
REMARK header records are copied from input PDB file (apart from REMARK 3!)     
REMARK --------------------- added by autoBUSTER -------------------------------
REMARK --------------------- added by autoBUSTER -------------------------------
REMARK run at   = Mon Dec 18 15:18:59 GMT 2023                                  
REMARK     in   = /dls/labxchem/data/lb32627/lb32627-65/processing/analysis/mode
REMARK     user = kyf22269                                                      
REMARK     cmd  = \                                                             
REMARK            /dls_sw/apps/GPhL/BUSTER/20211020/autoBUSTER/bin/linux64/refin
REMARK            -p \                                                          
REMARK            /dls/labxchem/data/lb32627/lb32627-65/processing/analysis/mode
REMARK            -m \                                                          
REMARK            /dls/labxchem/data/lb32627/lb32627-65/processing/analysis/mode
REMARK            -l \                                                          
REMARK            /dls/labxchem/data/lb32627/lb32627-65/processing/analysis/mode
REMARK            -autoncs -M TLSbasic StopOnGellySanityCheckError=no -d \      
REMARK            Refine_1                                                      
REMARK Files used:                                                              
REMARK   PDB              = Refine_1/pdbchk.pdb                                 
REMARK   MTZ              = /dls/labxchem/data/lb32627/lb32627-65/processing/ana
REMARK output written to subdirectory = Refine_1                                
REMARK best refinement for F,SIGF with R/Rfree 0.2412/0.2859                    
REMARK header records are copied from input PDB file (apart from REMARK 3!)     
REMARK --------------------- added by autoBUSTER -------------------------------
REMARK   2                                                            
REMARK   2 RESOLUTION.    1.58 ANGSTROMS.
REMARK   3
REMARK   3 REFINEMENT.
REMARK   3   PROGRAM     : BUSTER 2.10.4 (20-OCT-2021)
REMARK   3   AUTHORS     : BRICOGNE,BLANC,BRANDL,FLENSBURG,KELLER,
REMARK   3               : PACIOREK,ROVERSI,SHARFF,SMART,VONRHEIN,WOMACK;
REMARK   3               : MATTHEWS,TEN EYCK,TRONRUD
REMARK   3
REMARK   3  DATA USED IN REFINEMENT.
REMARK   3   RESOLUTION RANGE HIGH (ANGSTROMS) : 1.580
REMARK   3   RESOLUTION RANGE LOW  (ANGSTROMS) : 23.04
REMARK   3   DATA CUTOFF            (SIGMA(F)) : 0.000
REMARK   3   COMPLETENESS FOR RANGE        (%) : 77.1
REMARK   3   NUMBER OF REFLECTIONS             : 21808
REMARK   3
REMARK   3  FIT TO DATA USED IN REFINEMENT.
REMARK   3   CROSS-VALIDATION METHOD          : THROUGHOUT
REMARK   3   FREE R VALUE TEST SET SELECTION  : RANDOM
REMARK   3   R VALUE     (WORKING + TEST SET) : 0.2499
REMARK   3   R VALUE            (WORKING SET) : 0.2487
REMARK   3   FREE R VALUE                     : 0.2728
REMARK   3   FREE R VALUE TEST SET SIZE   (%) : 5.070
REMARK   3   FREE R VALUE TEST SET COUNT      : 1106
REMARK   3   ESTIMATED ERROR OF FREE R VALUE  : NULL
REMARK   3
REMARK   3  FIT IN THE HIGHEST RESOLUTION BIN.
REMARK   3   TOTAL NUMBER OF BINS USED           : 51
REMARK   3   BIN RESOLUTION RANGE HIGH       (A) : 1.58
REMARK   3   BIN RESOLUTION RANGE LOW        (A) : 1.72
REMARK   3   BIN COMPLETENESS (WORKING+TEST) (%) : 7.37
REMARK   3   REFLECTIONS IN BIN   (WORKING+TEST) : 437
REMARK   3   BIN R VALUE          (WORKING+TEST) : 0.6429
REMARK   3   REFLECTIONS IN BIN    (WORKING SET) : 416
REMARK   3   BIN R VALUE           (WORKING SET) : 0.6494
REMARK   3   BIN FREE R VALUE                    : 0.5120
REMARK   3   BIN FREE R VALUE TEST SET SIZE  (%) : 4.81
REMARK   3   BIN FREE R VALUE TEST SET COUNT     : 21
REMARK   3   ESTIMATED ERROR OF BIN FREE R VALUE : NULL
REMARK   3
REMARK   3  NUMBER OF NON-HYDROGEN ATOMS USED IN REFINEMENT.
REMARK   3   PROTEIN ATOMS            : 1476
REMARK   3   NUCLEIC ACID ATOMS       : 0
REMARK   3   HETEROGEN ATOMS          : 57
REMARK   3   SOLVENT ATOMS            : 63
REMARK   3
REMARK   3  B VALUES.
REMARK   3   FROM WILSON PLOT           (A**2) : 34.11
REMARK   3   MEAN B VALUE      (OVERALL, A**2) : 65.22
REMARK   3   OVERALL ANISOTROPIC B VALUE.
REMARK   3    B11 (A**2) : -8.79580
REMARK   3    B22 (A**2) : -8.79580
REMARK   3    B33 (A**2) : 17.59160
REMARK   3    B12 (A**2) : 0.00000
REMARK   3    B13 (A**2) : 0.00000
REMARK   3    B23 (A**2) : 0.00000
REMARK   3
REMARK   3  ESTIMATED COORDINATE ERROR.
REMARK   3   ESD FROM LUZZATI PLOT                    (A) : 0.51
REMARK   3   DPI (BLOW EQ-10) BASED ON R VALUE        (A) : 0.145
REMARK   3   DPI (BLOW EQ-9) BASED ON FREE R VALUE    (A) : 0.131
REMARK   3   DPI (CRUICKSHANK) BASED ON R VALUE       (A) : 0.139
REMARK   3   DPI (CRUICKSHANK) BASED ON FREE R VALUE  (A) : 0.128
REMARK   3
REMARK   3   REFERENCES: BLOW, D. (2002) ACTA CRYST D58, 792-797
REMARK   3               CRUICKSHANK, D.W.J. (1999) ACTA CRYST D55, 583-601
REMARK   3
REMARK   3  CORRELATION COEFFICIENTS.
REMARK   3   CORRELATION COEFFICIENT FO-FC      : 0.935
REMARK   3   CORRELATION COEFFICIENT FO-FC FREE : 0.938
REMARK   3
REMARK   3  X-RAY WEIGHT : 5.79
REMARK   3
REMARK   3  GEOMETRY FUNCTION.                                                  
REMARK   3   RESTRAINT LIBRARIES.                                               
REMARK   3    NUMBER OF LIBRARIES USED :  10                                    
REMARK   3    LIBRARY  1 : protgeo_eh99.dat (V1.6.4.17) 20191001  STANDARD      
REMARK   3                 AMINO ACID DICTIONARY. BONDS AND ANGLES FROM         
REMARK   3                 ENGH AND HUBER EH99. OTHER VALUES BASED ON           
REMARK   3                 PREVIOUS TNT OR TAKEN FROM CCP4. INCLUDES            
REMARK   3                 HYDROGEN ATOMS.                                      
REMARK   3    LIBRARY  2 : exoticaa.dat (V1.3.4.15) 20200327  COLLECTION        
REMARK   3                 OF NON-STANDARD AMINO ACIDS, MAINLY EH91             
REMARK   3                 WITHOUT IDEAL DISTANCE INFO                          
REMARK   3    LIBRARY  3 : nuclgeo.dat (V1.13.4.8) 20190909                     
REMARK   3    LIBRARY  4 : bcorrel.dat (V1.15.10.2) 20190616                    
REMARK   3    LIBRARY  5 : contact.dat (V1.15.12.10) 20191121                   
REMARK   3    LIBRARY  6 : idealdist_contact.dat (V1.3.4.12) 20191001           
REMARK   3                 IDEAL-DISTANCE CONTACT TERM DATA AS USED IN          
REMARK   3                 PROLSQ. VALUES USED HERE ARE BASED ON DATA           
REMARK   3                 HARVESTING OF PDB AS OF 20190109.                    
REMARK   3    LIBRARY  7 : restraints for LIG from cif dictionary               
REMARK   3                 ASAP-0015164-001.cif                                 
REMARK   3    LIBRARY  8 : restraints for DMS (DIMETHYL SULFOXIDE) from         
REMARK   3                 cif dictionary DMS.cif; buster common-compounds      
REMARK   3                 v 2.0 (19 Dec 2011)                                  
REMARK   3    LIBRARY  9 : restraints for SO4 (SULFATE ION) from cif            
REMARK   3                 dictionary SO4.cif; buster common-compounds v        
REMARK   3                 2.0 (19 Dec 2011)                                    
REMARK   3    LIBRARY 10 : assume.dat (V1.9.4.2) 20180705                       
REMARK   3                                                                      
REMARK   3   NUMBER OF GEOMETRIC FUNCTION TERMS DEFINED : 15                    
REMARK   3   TERM                          COUNT    WEIGHT   FUNCTION.          
REMARK   3    BOND LENGTHS              :   1595 ;   2.00 ;  HARMONIC           
REMARK   3    BOND ANGLES               :   2167 ;   2.00 ;  HARMONIC           
REMARK   3    TORSION ANGLES            :    544 ;   2.00 ;  SINUSOIDAL         
REMARK   3    TRIGONAL CARBON PLANES    :   NULL ;   NULL ;  NULL               
REMARK   3    GENERAL PLANES            :    273 ;   5.00 ;  HARMONIC           
REMARK   3    ISOTROPIC THERMAL FACTORS :   1566 ;  10.00 ;  HARMONIC           
REMARK   3    BAD NON-BONDED CONTACTS   :   NULL ;   NULL ;  NULL               
REMARK   3    IMPROPER TORSIONS         :   NULL ;   NULL ;  NULL               
REMARK   3    PSEUDOROTATION ANGLES     :   NULL ;   NULL ;  NULL               
REMARK   3    CHIRAL IMPROPER TORSION   :    197 ;   5.00 ;  SEMIHARMONIC       
REMARK   3    SUM OF OCCUPANCIES        :   NULL ;   NULL ;  NULL               
REMARK   3    UTILITY DISTANCES         :   NULL ;   NULL ;  NULL               
REMARK   3    UTILITY ANGLES            :   NULL ;   NULL ;  NULL               
REMARK   3    UTILITY TORSION           :   NULL ;   NULL ;  NULL               
REMARK   3    IDEAL-DIST CONTACT TERM   :   1168 ;   4.00 ;  SEMIHARMONIC       
REMARK   3                                                                      
REMARK   3   RMS DEVIATIONS FROM IDEAL VALUES.                                  
REMARK   3   BOND LENGTHS                       (A) : 0.008                     
REMARK   3   BOND ANGLES                  (DEGREES) : 1.00                      
REMARK   3   PEPTIDE OMEGA TORSION ANGLES (DEGREES) : 3.37                      
REMARK   3   OTHER TORSION ANGLES         (DEGREES) : 16.54                     
REMARK   3                                                                      
REMARK   3   SIMILARITY.                                                        
REMARK   3    NCS.                                                              
REMARK   3     NCS METHOD: NONE                                                 
REMARK   3    TARGET RESTRAINTS.                                                
REMARK   3     TARGET REPRESENTATION : NONE                                     
REMARK   3     TARGET STRUCTURE : NULL                                          
REMARK   3                                                                      
REMARK   3  TLS DETAILS.                                                        
REMARK   3   NUMBER OF TLS GROUPS  :            2                               
REMARK   3                                                                      
REMARK   3   TLS GROUP :            1                                           
REMARK   3    SET : { A|* }                                                     
REMARK   3    ORIGIN FOR THE GROUP (A):  -13.3956   -2.3642  -19.3354           
REMARK   3    T TENSOR                                                          
REMARK   3     T11:    0.0533 T22:   -0.0066                                    
REMARK   3     T33:   -0.2151 T12:    0.2956                                    
REMARK   3     T13:    0.1471 T23:    0.0939                                    
REMARK   3    L TENSOR                                                          
REMARK   3     L11:    4.2781 L22:    4.6825                                    
REMARK   3     L33:    3.7552 L12:   -1.8993                                    
REMARK   3     L13:    0.4137 L23:    0.2258                                    
REMARK   3    S TENSOR                                                          
REMARK   3     S11:    0.5821 S12:    0.5824 S13:    0.2582                     
REMARK   3     S21:   -0.6223 S22:   -0.5063 S23:   -0.3061                     
REMARK   3     S31:    0.0585 S32:    0.5776 S33:   -0.0758                     
REMARK   3                                                                      
REMARK   3   TLS GROUP :            2                                           
REMARK   3    SET : { B|* }                                                     
REMARK   3    ORIGIN FOR THE GROUP (A):  -17.9566    0.0890  -15.6868           
REMARK   3    T TENSOR                                                          
REMARK   3     T11:    0.1191 T22:    0.0269                                    
REMARK   3     T33:   -0.0405 T12:    0.2560                                    
REMARK   3     T13:    0.0631 T23:    0.0515                                    
REMARK   3    L TENSOR                                                          
REMARK   3     L11:    1.8213 L22:    1.5683                                    
REMARK   3     L33:    2.5541 L12:   -1.5745                                    
REMARK   3     L13:    0.8855 L23:   -0.3753                                    
REMARK   3    S TENSOR                                                          
REMARK   3     S11:    0.5006 S12:    0.2553 S13:    0.2334                     
REMARK   3     S21:   -0.1947 S22:   -0.4394 S23:    0.0814                     
REMARK   3     S31:    0.1456 S32:    0.3004 S33:   -0.0612                     
REMARK   3                                                                      
REMARK   3  REFINEMENT NOTES.                                                   
REMARK   3   NUMBER OF REFINEMENT NOTES :   1                                   
REMARK   3   NOTE   1 : IDEAL-DIST CONTACT TERM CONTACT SETUP. ALL ATOMS        
REMARK   3               HAVE CCP4 ATOM TYPE FROM LIBRARY                       
REMARK   3
REMARK   3  OTHER REFINEMENT REMARKS: NULL
REMARK   3
REMARK 290                                                            
REMARK 290 CRYSTALLOGRAPHIC SYMMETRY                                  
REMARK 290 SYMMETRY OPERATORS FOR SPACE GROUP: P 43 2 2               
REMARK 290                                                            
REMARK 290      SYMOP   SYMMETRY                                      
REMARK 290     NNNMMM   OPERATOR                                      
REMARK 290       1555   X,Y,Z                                         
REMARK 290       2555   -X,-Y,1/2+Z                                   
REMARK 290       3555   -Y,X,3/4+Z                                    
REMARK 290       4555   Y,-X,1/4+Z                                    
REMARK 290       5555   -X,Y,-Z                                       
REMARK 290       6555   X,-Y,1/2-Z                                    
REMARK 290       7555   Y,X,1/4-Z                                     
REMARK 290       8555   -Y,-X,3/4-Z                                   
REMARK 290                                                            
REMARK 290     WHERE NNN -> OPERATOR NUMBER                           
REMARK 290           MMM -> TRANSLATION VECTOR                        
REMARK 290                                                            
REMARK 290 CRYSTALLOGRAPHIC SYMMETRY TRANSFORMATIONS                  
REMARK 290 THE FOLLOWING TRANSFORMATIONS OPERATE ON THE ATOM/HETATM   
REMARK 290 RECORDS IN THIS ENTRY TO PRODUCE CRYSTALLOGRAPHICALLY      
REMARK 290 RELATED MOLECULES.                                         
REMARK 290   SMTRY1   1  1.000000  0.000000  0.000000        0.00000
REMARK 290   SMTRY2   1  0.000000  1.000000  0.000000        0.00000
REMARK 290   SMTRY3   1  0.000000  0.000000  1.000000        0.00000
REMARK 290   SMTRY1   2 -1.000000  0.000000  0.000000        0.00000
REMARK 290   SMTRY2   2  0.000000 -1.000000  0.000000        0.00000
REMARK 290   SMTRY3   2  0.000000  0.000000  1.000000      108.04950
REMARK 290   SMTRY1   3  0.000000 -1.000000  0.000000        0.00000
REMARK 290   SMTRY2   3  1.000000  0.000000  0.000000        0.00000
REMARK 290   SMTRY3   3  0.000000  0.000000  1.000000      162.07425
REMARK 290   SMTRY1   4  0.000000  1.000000  0.000000        0.00000
REMARK 290   SMTRY2   4 -1.000000  0.000000  0.000000        0.00000
REMARK 290   SMTRY3   4  0.000000  0.000000  1.000000       54.02475
REMARK 290   SMTRY1   5 -1.000000  0.000000  0.000000        0.00000
REMARK 290   SMTRY2   5  0.000000  1.000000  0.000000        0.00000
REMARK 290   SMTRY3   5  0.000000  0.000000 -1.000000        0.00000
REMARK 290   SMTRY1   6  1.000000  0.000000  0.000000        0.00000
REMARK 290   SMTRY2   6  0.000000 -1.000000  0.000000        0.00000
REMARK 290   SMTRY3   6  0.000000  0.000000 -1.000000      108.04950
REMARK 290   SMTRY1   7  0.000000  1.000000  0.000000        0.00000
REMARK 290   SMTRY2   7  1.000000  0.000000  0.000000        0.00000
REMARK 290   SMTRY3   7  0.000000  0.000000 -1.000000       54.02475
REMARK 290   SMTRY1   8  0.000000 -1.000000  0.000000        0.00000
REMARK 290   SMTRY2   8 -1.000000  0.000000  0.000000        0.00000
REMARK 290   SMTRY3   8  0.000000  0.000000 -1.000000      162.07425
REMARK 290                                                            
REMARK 290 REMARK: NULL                                               
CRYST1   42.399   42.399  216.099  90.00  90.00  90.00 P 43 2 2                 


$$$$
Zx2119a_ligand
  PyMOL3.0          3D                             0

 27 29  0  0  0  0  0  0  0  0999 V2000
   -6.2560    4.9420   -6.8010 C   0  0  0  0  0  0  0  0  0  0  0  0
   -6.9440    4.2700   -5.6910 N   0  0  0  0  0  0  0  0  0  0  0  0
   -6.7170    5.1970  -15.1510 O   0  0  0  0  0  0  0  0  0  0  0  0
   -6.9070    4.6230   -8.1260 C   0  0  0  0  0  0  0  0  0  0  0  0
   -8.4310    4.0330  -14.2760 N   0  0  0  0  0  0  0  0  0  0  0  0
   -7.0410    1.6510  -13.3980 O   0  0  0  0  0  0  0  0  0  0  0  0
   -7.8380    5.4760   -8.6980 C   0  0  0  0  0  0  0  0  0  0  0  0
   -5.4860    3.0870  -12.6150 N   0  0  0  0  0  0  0  0  0  0  0  0
   -8.4480    5.1540   -9.8990 C   0  0  0  0  0  0  0  0  0  0  0  0
   -8.2170    3.9340  -10.5130 C   0  0  0  0  0  0  0  0  0  0  0  0
   -8.8170    3.6220  -11.8600 C   0  0  0  0  0  0  0  0  0  0  0  0
   -7.8020    3.8880  -12.9830 C   0  0  0  0  0  0  0  0  0  0  0  0
   -7.7800    4.5960  -15.3010 C   0  0  0  0  0  0  0  0  0  0  0  0
   -8.4010    4.4730  -16.6640 C   0  0  0  0  0  0  0  0  0  0  0  0
   -7.6440    4.7580  -17.7940 C   0  0  0  0  0  0  0  0  0  0  0  0
   -8.2080    4.6520  -19.0530 C   0  0  0  0  0  0  0  0  0  0  0  0
   -9.5320    4.3040  -19.1980 C   0  0  0  0  0  0  0  0  0  0  0  0
  -10.2980    4.0470  -18.0840 C   0  0  0  0  0  0  0  0  0  0  0  0
   -9.7360    4.1270  -16.8230 C   0  0  0  0  0  0  0  0  0  0  0  0
   -6.7390    2.7880  -13.0180 C   0  0  0  0  0  0  0  0  0  0  0  0
   -4.9860    4.4330  -12.2740 C   0  0  0  0  0  0  0  0  0  0  0  0
   -3.4680    4.4940  -12.2120 C   0  0  0  0  0  0  0  0  0  0  0  0
   -2.8280    3.7210  -13.3580 C   0  0  0  0  0  0  0  0  0  0  0  0
   -3.2880    2.2660  -13.3870 C   0  0  0  0  0  0  0  0  0  0  0  0
   -4.4870    2.0170  -12.4850 C   0  0  0  0  0  0  0  0  0  0  0  0
   -7.2740    3.0940   -9.9470 C   0  0  0  0  0  0  0  0  0  0  0  0
   -6.6210    3.4340   -8.7760 C   0  0  0  0  0  0  0  0  0  0  0  0
  1  4  1  0  0  0  0
  1  2  1  0  0  0  0
  4  7  4  0  0  0  0
  4 27  4  0  0  0  0
  5 13  1  0  0  0  0
  7  9  4  0  0  0  0
  8 21  1  0  0  0  0
  8 25  1  0  0  0  0
  9 10  4  0  0  0  0
 10 11  1  0  0  0  0
 10 26  4  0  0  0  0
 11 12  1  0  0  0  0
  5 12  1  0  0  0  0
 12 20  1  0  0  0  0
  3 13  2  0  0  0  0
 13 14  1  0  0  0  0
 14 15  4  0  0  0  0
 14 19  4  0  0  0  0
 15 16  4  0  0  0  0
 16 17  4  0  0  0  0
 17 18  4  0  0  0  0
 18 19  4  0  0  0  0
  6 20  2  0  0  0  0
  8 20  1  0  0  0  0
 21 22  1  0  0  0  0
 22 23  1  0  0  0  0
 23 24  1  0  0  0  0
 24 25  1  0  0  0  0
 26 27  4  0  0  0  0
M  END
>  <pdb_header>
COMPND    XX01ZVNS2B-x2119_B_301_XX01ZVNS2B-x1291+B+301+1


$$$$
Zx2126a
  PyMOL3.0          3D                             0

 25 26  0  0  0  0  0  0  0  0999 V2000
  -10.5880    3.6820  -18.6790 Cl  0  0  0  0  0  0  0  0  0  0  0  0
   -8.3110    7.1130   -9.7550 C   0  0  0  0  0  0  0  0  0  0  0  0
   -8.3310    5.8300  -10.4400 N   0  0  0  0  0  0  0  0  0  0  0  0
   -8.2190    5.7220  -11.8550 O   0  0  0  0  0  0  0  0  0  0  0  0
   -8.2820    4.3800  -12.1530 C   0  0  0  0  0  0  0  0  0  0  0  0
   -8.0250    4.9830  -14.4420 N   0  0  0  0  0  0  0  0  0  0  0  0
   -8.2180    2.7720  -13.8630 O   0  0  0  0  0  0  0  0  0  0  0  0
   -8.1790    3.9620  -13.5600 C   0  0  0  0  0  0  0  0  0  0  0  0
   -5.8860    5.9990  -19.9830 N   0  0  0  0  0  0  0  0  0  0  0  0
   -4.6060    5.4880  -18.1990 O   0  0  0  0  0  0  0  0  0  0  0  0
   -8.0640    4.9080  -15.8490 C   0  0  0  0  0  0  0  0  0  0  0  0
   -5.1250    4.2220  -22.1720 O   0  0  0  0  0  0  0  0  0  0  0  0
   -9.1730    4.3760  -16.4930 C   0  0  0  0  0  0  0  0  0  0  0  0
   -8.5510    4.3090   -8.6930 O   0  0  0  0  0  0  0  0  0  0  0  0
   -9.1740    4.3030  -17.8730 C   0  0  0  0  0  0  0  0  0  0  0  0
   -8.0730    4.6620  -18.6120 C   0  0  0  0  0  0  0  0  0  0  0  0
   -6.9430    5.1520  -17.9730 C   0  0  0  0  0  0  0  0  0  0  0  0
   -5.7110    5.5530  -18.7350 C   0  0  0  0  0  0  0  0  0  0  0  0
   -4.8160    6.3650  -20.9600 C   0  0  0  0  0  0  0  0  0  0  0  0
   -5.4410    7.1440  -22.1200 C   0  0  0  0  0  0  0  0  0  0  0  0
   -3.7240    7.2230  -20.3150 C   0  0  0  0  0  0  0  0  0  0  0  0
   -4.2030    5.0670  -21.4980 C   0  0  0  0  0  0  0  0  0  0  0  0
   -6.9420    5.2720  -16.5880 C   0  0  0  0  0  0  0  0  0  0  0  0
   -8.4200    3.6780  -11.0020 C   0  0  0  0  0  0  0  0  0  0  0  0
   -8.4360    4.5840   -9.9360 C   0  0  0  0  0  0  0  0  0  0  0  0
  2  3  1  0  0  0  0
  3  4  4  0  0  0  0
  3 25  4  0  0  0  0
  4  5  4  0  0  0  0
  5  8  1  0  0  0  0
  5 24  4  0  0  0  0
  6 11  1  0  0  0  0
  6  8  1  0  0  0  0
  7  8  2  0  0  0  0
  9 19  1  0  0  0  0
 11 13  4  0  0  0  0
 11 23  4  0  0  0  0
 13 15  4  0  0  0  0
  1 15  1  0  0  0  0
 15 16  4  0  0  0  0
 16 17  4  0  0  0  0
 17 18  1  0  0  0  0
 17 23  4  0  0  0  0
  9 18  1  0  0  0  0
 10 18  2  0  0  0  0
 19 20  1  0  0  0  0
 19 21  1  0  0  0  0
 19 22  1  0  0  0  0
 12 22  1  0  0  0  0
 24 25  4  0  0  0  0
 14 25  2  0  0  0  0
M  END
>  <pdb_header>
HEADER    ----                                    23-FEB-23                     
TITLE     ---                                                                   
EXPDTA    X-RAY DIFFRACTION                                                     
REMARK --------------------- added by autoBUSTER ---------------------------------START
REMARK run at   = Tue Jan 23 19:05:54 GMT 2024
REMARK     in   = /dls/labxchem/data/lb32627/lb32627-65/processing/analysis/model_building/XX01ZVNS2B-x2126
REMARK     user = kyf22269
REMARK     cmd  = \
REMARK            /dls_sw/apps/GPhL/BUSTER/20211020/autoBUSTER/bin/linux64/refine \
REMARK            -p \
REMARK            /dls/labxchem/data/lb32627/lb32627-65/processing/analysis/model_building/XX01ZVNS2B-x2126/cootOut/Refi
REMARK            -m \
REMARK            /dls/labxchem/data/lb32627/lb32627-65/processing/analysis/model_building/XX01ZVNS2B-x2126/XX01ZVNS2B-x
REMARK            -l \
REMARK            /dls/labxchem/data/lb32627/lb32627-65/processing/analysis/model_building/XX01ZVNS2B-x2126/ASAP-0015080
REMARK            -autoncs -M TLSbasic -d Refine_13
REMARK Files used:
REMARK   PDB              = Refine_13/pdbchk.pdb
REMARK   MTZ              = /dls/labxchem/data/lb32627/lb32627-65/processing/analysis/model_building/XX01ZVNS2B-x2126/XX
REMARK output written to subdirectory = Refine_13
REMARK best refinement for F,SIGF with R/Rfree 0.2302/0.2802
REMARK header records are copied from input PDB file (apart from REMARK 3!)
REMARK --------------------- added by autoBUSTER -----------------------------------END
REMARK --------------------- added by autoBUSTER -------------------------------
REMARK run at   = Tue Jan 23 18:52:29 GMT 2024                                  
REMARK     in   = /dls/labxchem/data/lb32627/lb32627-65/processing/analysis/mode
REMARK     user = kyf22269                                                      
REMARK     cmd  = \                                                             
REMARK            /dls_sw/apps/GPhL/BUSTER/20211020/autoBUSTER/bin/linux64/refin
REMARK            -p \                                                          
REMARK            /dls/labxchem/data/lb32627/lb32627-65/processing/analysis/mode
REMARK            -m \                                                          
REMARK            /dls/labxchem/data/lb32627/lb32627-65/processing/analysis/mode
REMARK            -l \                                                          
REMARK            /dls/labxchem/data/lb32627/lb32627-65/processing/analysis/mode
REMARK            -autoncs -M TLSbasic -d Refine_12                             
REMARK Files used:                                                              
REMARK   PDB              = Refine_12/pdbchk.pdb                                
REMARK   MTZ              = /dls/labxchem/data/lb32627/lb32627-65/processing/ana
REMARK output written to subdirectory = Refine_12                               
REMARK best refinement for F,SIGF with R/Rfree 0.2274/0.2919                    
REMARK header records are copied from input PDB file (apart from REMARK 3!)     
REMARK --------------------- added by autoBUSTER -------------------------------
REMARK --------------------- added by autoBUSTER -------------------------------
REMARK run at   = Tue Jan 23 18:23:30 GMT 2024                                  
REMARK     in   = /dls/labxchem/data/lb32627/lb32627-65/processing/analysis/mode
REMARK     user = kyf22269                                                      
REMARK     cmd  = \                                                             
REMARK            /dls_sw/apps/GPhL/BUSTER/20211020/autoBUSTER/bin/linux64/refin
REMARK            -p \                                                          
REMARK            /dls/labxchem/data/lb32627/lb32627-65/processing/analysis/mode
REMARK            -m \                                                          
REMARK            /dls/labxchem/data/lb32627/lb32627-65/processing/analysis/mode
REMARK            -l \                                                          
REMARK            /dls/labxchem/data/lb32627/lb32627-65/processing/analysis/mode
REMARK            -autoncs -M TLSbasic -d Refine_11                             
REMARK Files used:                                                              
REMARK   PDB              = Refine_11/pdbchk.pdb                                
REMARK   MTZ              = /dls/labxchem/data/lb32627/lb32627-65/processing/ana
REMARK output written to subdirectory = Refine_11                               
REMARK best refinement for F,SIGF with R/Rfree 0.2338/0.3007                    
REMARK header records are copied from input PDB file (apart from REMARK 3!)     
REMARK --------------------- added by autoBUSTER -------------------------------
REMARK --------------------- added by autoBUSTER -------------------------------
REMARK run at   = Tue Jan 23 16:43:58 GMT 2024                                  
REMARK     in   = /dls/labxchem/data/lb32627/lb32627-65/processing/analysis/mode
REMARK     user = kyf22269                                                      
REMARK     cmd  = \                                                             
REMARK            /dls_sw/apps/GPhL/BUSTER/20211020/autoBUSTER/bin/linux64/refin
REMARK            -p \                                                          
REMARK            /dls/labxchem/data/lb32627/lb32627-65/processing/analysis/mode
REMARK            -m \                                                          
REMARK            /dls/labxchem/data/lb32627/lb32627-65/processing/analysis/mode
REMARK            -l \                                                          
REMARK            /dls/labxchem/data/lb32627/lb32627-65/processing/analysis/mode
REMARK            -autoncs -M TLSbasic -d Refine_10                             
REMARK Files used:                                                              
REMARK   PDB              = Refine_10/pdbchk.pdb                                
REMARK   MTZ              = /dls/labxchem/data/lb32627/lb32627-65/processing/ana
REMARK output written to subdirectory = Refine_10                               
REMARK best refinement for F,SIGF with R/Rfree 0.2373/0.2885                    
REMARK header records are copied from input PDB file (apart from REMARK 3!)     
REMARK --------------------- added by autoBUSTER -------------------------------
REMARK --------------------- added by autoBUSTER -------------------------------
REMARK run at   = Tue Jan 23 16:30:58 GMT 2024                                  
REMARK     in   = /dls/labxchem/data/lb32627/lb32627-65/processing/analysis/mode
REMARK     user = kyf22269                                                      
REMARK     cmd  = \                                                             
REMARK            /dls_sw/apps/GPhL/BUSTER/20211020/autoBUSTER/bin/linux64/refin
REMARK            -p \                                                          
REMARK            /dls/labxchem/data/lb32627/lb32627-65/processing/analysis/mode
REMARK            -m \                                                          
REMARK            /dls/labxchem/data/lb32627/lb32627-65/processing/analysis/mode
REMARK            -l \                                                          
REMARK            /dls/labxchem/data/lb32627/lb32627-65/processing/analysis/mode
REMARK            -autoncs -M TLSbasic -d Refine_9                              
REMARK Files used:                                                              
REMARK   PDB              = Refine_9/pdbchk.pdb                                 
REMARK   MTZ              = /dls/labxchem/data/lb32627/lb32627-65/processing/ana
REMARK output written to subdirectory = Refine_9                                
REMARK best refinement for F,SIGF with R/Rfree 0.2371/0.2822                    
REMARK header records are copied from input PDB file (apart from REMARK 3!)     
REMARK --------------------- added by autoBUSTER -------------------------------
REMARK   2                                                            
REMARK   2 RESOLUTION.    2.16 ANGSTROMS.
REMARK   3
REMARK   3 REFINEMENT.
REMARK   3   PROGRAM     : BUSTER 2.10.4 (20-OCT-2021)
REMARK   3   AUTHORS     : BRICOGNE,BLANC,BRANDL,FLENSBURG,KELLER,
REMARK   3               : PACIOREK,ROVERSI,SHARFF,SMART,VONRHEIN,WOMACK;
REMARK   3               : MATTHEWS,TEN EYCK,TRONRUD
REMARK   3
REMARK   3  DATA USED IN REFINEMENT.
REMARK   3   RESOLUTION RANGE HIGH (ANGSTROMS) : 2.156
REMARK   3   RESOLUTION RANGE LOW  (ANGSTROMS) : 53.97
REMARK   3   DATA CUTOFF            (SIGMA(F)) : 0.000
REMARK   3   COMPLETENESS FOR RANGE        (%) : 99.8
REMARK   3   NUMBER OF REFLECTIONS             : 11549
REMARK   3
REMARK   3  FIT TO DATA USED IN REFINEMENT.
REMARK   3   CROSS-VALIDATION METHOD          : THROUGHOUT
REMARK   3   FREE R VALUE TEST SET SELECTION  : RANDOM
REMARK   3   R VALUE     (WORKING + TEST SET) : 0.2327
REMARK   3   R VALUE            (WORKING SET) : 0.2302
REMARK   3   FREE R VALUE                     : 0.2802
REMARK   3   FREE R VALUE TEST SET SIZE   (%) : 4.810
REMARK   3   FREE R VALUE TEST SET COUNT      : 555
REMARK   3   ESTIMATED ERROR OF FREE R VALUE  : NULL
REMARK   3
REMARK   3  FIT IN THE HIGHEST RESOLUTION BIN.
REMARK   3   TOTAL NUMBER OF BINS USED           : 28
REMARK   3   BIN RESOLUTION RANGE HIGH       (A) : 2.16
REMARK   3   BIN RESOLUTION RANGE LOW        (A) : 2.19
REMARK   3   BIN COMPLETENESS (WORKING+TEST) (%) : 94.77
REMARK   3   REFLECTIONS IN BIN   (WORKING+TEST) : 428
REMARK   3   BIN R VALUE          (WORKING+TEST) : 0.3641
REMARK   3   REFLECTIONS IN BIN    (WORKING SET) : 404
REMARK   3   BIN R VALUE           (WORKING SET) : 0.3646
REMARK   3   BIN FREE R VALUE                    : 0.3581
REMARK   3   BIN FREE R VALUE TEST SET SIZE  (%) : 5.61
REMARK   3   BIN FREE R VALUE TEST SET COUNT     : 24
REMARK   3   ESTIMATED ERROR OF BIN FREE R VALUE : NULL
REMARK   3
REMARK   3  NUMBER OF NON-HYDROGEN ATOMS USED IN REFINEMENT.
REMARK   3   PROTEIN ATOMS            : 1476
REMARK   3   NUCLEIC ACID ATOMS       : 0
REMARK   3   HETEROGEN ATOMS          : 29
REMARK   3   SOLVENT ATOMS            : 65
REMARK   3
REMARK   3  B VALUES.
REMARK   3   FROM WILSON PLOT           (A**2) : 48.12
REMARK   3   MEAN B VALUE      (OVERALL, A**2) : 63.48
REMARK   3   OVERALL ANISOTROPIC B VALUE.
REMARK   3    B11 (A**2) : -4.60820
REMARK   3    B22 (A**2) : -4.60820
REMARK   3    B33 (A**2) : 9.21640
REMARK   3    B12 (A**2) : 0.00000
REMARK   3    B13 (A**2) : 0.00000
REMARK   3    B23 (A**2) : 0.00000
REMARK   3
REMARK   3  ESTIMATED COORDINATE ERROR.
REMARK   3   ESD FROM LUZZATI PLOT                    (A) : 0.36
REMARK   3   DPI (BLOW EQ-10) BASED ON R VALUE        (A) : 0.309
REMARK   3   DPI (BLOW EQ-9) BASED ON FREE R VALUE    (A) : 0.233
REMARK   3   DPI (CRUICKSHANK) BASED ON R VALUE       (A) : 0.277
REMARK   3   DPI (CRUICKSHANK) BASED ON FREE R VALUE  (A) : 0.225
REMARK   3
REMARK   3   REFERENCES: BLOW, D. (2002) ACTA CRYST D58, 792-797
REMARK   3               CRUICKSHANK, D.W.J. (1999) ACTA CRYST D55, 583-601
REMARK   3
REMARK   3  CORRELATION COEFFICIENTS.
REMARK   3   CORRELATION COEFFICIENT FO-FC      : 0.942
REMARK   3   CORRELATION COEFFICIENT FO-FC FREE : 0.921
REMARK   3
REMARK   3  X-RAY WEIGHT : 7.56
REMARK   3
REMARK   3  GEOMETRY FUNCTION.                                                  
REMARK   3   RESTRAINT LIBRARIES.                                               
REMARK   3    NUMBER OF LIBRARIES USED :   9                                    
REMARK   3    LIBRARY  1 : protgeo_eh99.dat (V1.6.4.17) 20191001  STANDARD      
REMARK   3                 AMINO ACID DICTIONARY. BONDS AND ANGLES FROM         
REMARK   3                 ENGH AND HUBER EH99. OTHER VALUES BASED ON           
REMARK   3                 PREVIOUS TNT OR TAKEN FROM CCP4. INCLUDES            
REMARK   3                 HYDROGEN ATOMS.                                      
REMARK   3    LIBRARY  2 : exoticaa.dat (V1.3.4.15) 20200327  COLLECTION        
REMARK   3                 OF NON-STANDARD AMINO ACIDS, MAINLY EH91             
REMARK   3                 WITHOUT IDEAL DISTANCE INFO                          
REMARK   3    LIBRARY  3 : nuclgeo.dat (V1.13.4.8) 20190909                     
REMARK   3    LIBRARY  4 : bcorrel.dat (V1.15.10.2) 20190616                    
REMARK   3    LIBRARY  5 : contact.dat (V1.15.12.10) 20191121                   
REMARK   3    LIBRARY  6 : idealdist_contact.dat (V1.3.4.12) 20191001           
REMARK   3                 IDEAL-DISTANCE CONTACT TERM DATA AS USED IN          
REMARK   3                 PROLSQ. VALUES USED HERE ARE BASED ON DATA           
REMARK   3                 HARVESTING OF PDB AS OF 20190109.                    
REMARK   3    LIBRARY  7 : restraints for LIG from cif dictionary               
REMARK   3                 ASAP-0015080-001.cif                                 
REMARK   3    LIBRARY  8 : restraints for DMS (DIMETHYL SULFOXIDE) from         
REMARK   3                 cif dictionary DMS.cif; buster common-compounds      
REMARK   3                 v 2.0 (19 Dec 2011)                                  
REMARK   3    LIBRARY  9 : assume.dat (V1.9.4.2) 20180705                       
REMARK   3                                                                      
REMARK   3   NUMBER OF GEOMETRIC FUNCTION TERMS DEFINED : 15                    
REMARK   3   TERM                          COUNT    WEIGHT   FUNCTION.          
REMARK   3    BOND LENGTHS              :   1572 ;   2.00 ;  HARMONIC           
REMARK   3    BOND ANGLES               :   2143 ;   2.00 ;  HARMONIC           
REMARK   3    TORSION ANGLES            :    537 ;   2.00 ;  SINUSOIDAL         
REMARK   3    TRIGONAL CARBON PLANES    :   NULL ;   NULL ;  NULL               
REMARK   3    GENERAL PLANES            :    272 ;   5.00 ;  HARMONIC           
REMARK   3    ISOTROPIC THERMAL FACTORS :   1572 ;  10.00 ;  HARMONIC           
REMARK   3    BAD NON-BONDED CONTACTS   :   NULL ;   NULL ;  NULL               
REMARK   3    IMPROPER TORSIONS         :   NULL ;   NULL ;  NULL               
REMARK   3    PSEUDOROTATION ANGLES     :   NULL ;   NULL ;  NULL               
REMARK   3    CHIRAL IMPROPER TORSION   :    196 ;   5.00 ;  SEMIHARMONIC       
REMARK   3    SUM OF OCCUPANCIES        :   NULL ;   NULL ;  NULL               
REMARK   3    UTILITY DISTANCES         :   NULL ;   NULL ;  NULL               
REMARK   3    UTILITY ANGLES            :   NULL ;   NULL ;  NULL               
REMARK   3    UTILITY TORSION           :   NULL ;   NULL ;  NULL               
REMARK   3    IDEAL-DIST CONTACT TERM   :   1144 ;   4.00 ;  SEMIHARMONIC       
REMARK   3                                                                      
REMARK   3   RMS DEVIATIONS FROM IDEAL VALUES.                                  
REMARK   3   BOND LENGTHS                       (A) : 0.008                     
REMARK   3   BOND ANGLES                  (DEGREES) : 0.98                      
REMARK   3   PEPTIDE OMEGA TORSION ANGLES (DEGREES) : 3.25                      
REMARK   3   OTHER TORSION ANGLES         (DEGREES) : 17.35                     
REMARK   3                                                                      
REMARK   3   SIMILARITY.                                                        
REMARK   3    NCS.                                                              
REMARK   3     NCS METHOD: NONE                                                 
REMARK   3    TARGET RESTRAINTS.                                                
REMARK   3     TARGET REPRESENTATION : NONE                                     
REMARK   3     TARGET STRUCTURE : NULL                                          
REMARK   3                                                                      
REMARK   3  TLS DETAILS.                                                        
REMARK   3   NUMBER OF TLS GROUPS  :            2                               
REMARK   3                                                                      
REMARK   3   TLS GROUP :            1                                           
REMARK   3    SET : { A|* }                                                     
REMARK   3    ORIGIN FOR THE GROUP (A):  -13.3205   -2.3012  -19.3366           
REMARK   3    T TENSOR                                                          
REMARK   3     T11:   -0.0226 T22:   -0.1258                                    
REMARK   3     T33:   -0.3331 T12:    0.2874                                    
REMARK   3     T13:    0.1977 T23:    0.1672                                    
REMARK   3    L TENSOR                                                          
REMARK   3     L11:    5.9469 L22:    5.0565                                    
REMARK   3     L33:    6.4199 L12:   -2.4028                                    
REMARK   3     L13:    0.2643 L23:    0.2505                                    
REMARK   3    S TENSOR                                                          
REMARK   3     S11:    0.6074 S12:    0.5581 S13:    0.2622                     
REMARK   3     S21:   -0.5334 S22:   -0.4811 S23:   -0.3369                     
REMARK   3     S31:    0.1888 S32:    0.4793 S33:   -0.1263                     
REMARK   3                                                                      
REMARK   3   TLS GROUP :            2                                           
REMARK   3    SET : { B|* }                                                     
REMARK   3    ORIGIN FOR THE GROUP (A):  -18.0367    0.2178  -15.6598           
REMARK   3    T TENSOR                                                          
REMARK   3     T11:    0.1648 T22:    0.0810                                    
REMARK   3     T33:   -0.0986 T12:    0.3023                                    
REMARK   3     T13:    0.1103 T23:    0.0893                                    
REMARK   3    L TENSOR                                                          
REMARK   3     L11:    1.7925 L22:    2.0726                                    
REMARK   3     L33:    2.4957 L12:   -1.4049                                    
REMARK   3     L13:    0.5551 L23:   -0.5467                                    
REMARK   3    S TENSOR                                                          
REMARK   3     S11:    0.5707 S12:    0.2549 S13:    0.3114                     
REMARK   3     S21:   -0.1810 S22:   -0.5066 S23:    0.0097                     
REMARK   3     S31:    0.2009 S32:    0.2135 S33:   -0.0640                     
REMARK   3                                                                      
REMARK   3  REFINEMENT NOTES.                                                   
REMARK   3   NUMBER OF REFINEMENT NOTES :   1                                   
REMARK   3   NOTE   1 : IDEAL-DIST CONTACT TERM CONTACT SETUP. ALL ATOMS        
REMARK   3               HAVE CCP4 ATOM TYPE FROM LIBRARY                       
REMARK   3
REMARK   3  OTHER REFINEMENT REMARKS: NULL
REMARK   3
REMARK 290                                                            
REMARK 290 CRYSTALLOGRAPHIC SYMMETRY                                  
REMARK 290 SYMMETRY OPERATORS FOR SPACE GROUP: P 43 2 2               
REMARK 290                                                            
REMARK 290      SYMOP   SYMMETRY                                      
REMARK 290     NNNMMM   OPERATOR                                      
REMARK 290       1555   X,Y,Z                                         
REMARK 290       2555   -X,-Y,1/2+Z                                   
REMARK 290       3555   -Y,X,3/4+Z                                    
REMARK 290       4555   Y,-X,1/4+Z                                    
REMARK 290       5555   -X,Y,-Z                                       
REMARK 290       6555   X,-Y,1/2-Z                                    
REMARK 290       7555   Y,X,1/4-Z                                     
REMARK 290       8555   -Y,-X,3/4-Z                                   
REMARK 290                                                            
REMARK 290     WHERE NNN -> OPERATOR NUMBER                           
REMARK 290           MMM -> TRANSLATION VECTOR                        
REMARK 290                                                            
REMARK 290 CRYSTALLOGRAPHIC SYMMETRY TRANSFORMATIONS                  
REMARK 290 THE FOLLOWING TRANSFORMATIONS OPERATE ON THE ATOM/HETATM   
REMARK 290 RECORDS IN THIS ENTRY TO PRODUCE CRYSTALLOGRAPHICALLY      
REMARK 290 RELATED MOLECULES.                                         
REMARK 290   SMTRY1   1  1.000000  0.000000  0.000000        0.00000
REMARK 290   SMTRY2   1  0.000000  1.000000  0.000000        0.00000
REMARK 290   SMTRY3   1  0.000000  0.000000  1.000000        0.00000
REMARK 290   SMTRY1   2 -1.000000  0.000000  0.000000        0.00000
REMARK 290   SMTRY2   2  0.000000 -1.000000  0.000000        0.00000
REMARK 290   SMTRY3   2  0.000000  0.000000  1.000000      107.93700
REMARK 290   SMTRY1   3  0.000000 -1.000000  0.000000        0.00000
REMARK 290   SMTRY2   3  1.000000  0.000000  0.000000        0.00000
REMARK 290   SMTRY3   3  0.000000  0.000000  1.000000      161.90550
REMARK 290   SMTRY1   4  0.000000  1.000000  0.000000        0.00000
REMARK 290   SMTRY2   4 -1.000000  0.000000  0.000000        0.00000
REMARK 290   SMTRY3   4  0.000000  0.000000  1.000000       53.96850
REMARK 290   SMTRY1   5 -1.000000  0.000000  0.000000        0.00000
REMARK 290   SMTRY2   5  0.000000  1.000000  0.000000        0.00000
REMARK 290   SMTRY3   5  0.000000  0.000000 -1.000000        0.00000
REMARK 290   SMTRY1   6  1.000000  0.000000  0.000000        0.00000
REMARK 290   SMTRY2   6  0.000000 -1.000000  0.000000        0.00000
REMARK 290   SMTRY3   6  0.000000  0.000000 -1.000000      107.93700
REMARK 290   SMTRY1   7  0.000000  1.000000  0.000000        0.00000
REMARK 290   SMTRY2   7  1.000000  0.000000  0.000000        0.00000
REMARK 290   SMTRY3   7  0.000000  0.000000 -1.000000       53.96850
REMARK 290   SMTRY1   8  0.000000 -1.000000  0.000000        0.00000
REMARK 290   SMTRY2   8 -1.000000  0.000000  0.000000        0.00000
REMARK 290   SMTRY3   8  0.000000  0.000000 -1.000000      161.90550
REMARK 290                                                            
REMARK 290 REMARK: NULL                                               
CRYST1   42.553   42.553  215.874  90.00  90.00  90.00 P 43 2 2                 


$$$$
Zx2126a_ligand
  PyMOL3.0          3D                             0

 25 26  0  0  0  0  0  0  0  0999 V2000
  -10.5880    3.6820  -18.6790 Cl  0  0  0  0  0  0  0  0  0  0  0  0
   -8.3110    7.1130   -9.7550 C   0  0  0  0  0  0  0  0  0  0  0  0
   -8.3310    5.8300  -10.4400 N   0  0  0  0  0  0  0  0  0  0  0  0
   -8.2190    5.7220  -11.8550 O   0  0  0  0  0  0  0  0  0  0  0  0
   -8.2820    4.3800  -12.1530 C   0  0  0  0  0  0  0  0  0  0  0  0
   -8.0250    4.9830  -14.4420 N   0  0  0  0  0  0  0  0  0  0  0  0
   -8.2180    2.7720  -13.8630 O   0  0  0  0  0  0  0  0  0  0  0  0
   -8.1790    3.9620  -13.5600 C   0  0  0  0  0  0  0  0  0  0  0  0
   -5.8860    5.9990  -19.9830 N   0  0  0  0  0  0  0  0  0  0  0  0
   -4.6060    5.4880  -18.1990 O   0  0  0  0  0  0  0  0  0  0  0  0
   -8.0640    4.9080  -15.8490 C   0  0  0  0  0  0  0  0  0  0  0  0
   -5.1250    4.2220  -22.1720 O   0  0  0  0  0  0  0  0  0  0  0  0
   -9.1730    4.3760  -16.4930 C   0  0  0  0  0  0  0  0  0  0  0  0
   -8.5510    4.3090   -8.6930 O   0  0  0  0  0  0  0  0  0  0  0  0
   -9.1740    4.3030  -17.8730 C   0  0  0  0  0  0  0  0  0  0  0  0
   -8.0730    4.6620  -18.6120 C   0  0  0  0  0  0  0  0  0  0  0  0
   -6.9430    5.1520  -17.9730 C   0  0  0  0  0  0  0  0  0  0  0  0
   -5.7110    5.5530  -18.7350 C   0  0  0  0  0  0  0  0  0  0  0  0
   -4.8160    6.3650  -20.9600 C   0  0  0  0  0  0  0  0  0  0  0  0
   -5.4410    7.1440  -22.1200 C   0  0  0  0  0  0  0  0  0  0  0  0
   -3.7240    7.2230  -20.3150 C   0  0  0  0  0  0  0  0  0  0  0  0
   -4.2030    5.0670  -21.4980 C   0  0  0  0  0  0  0  0  0  0  0  0
   -6.9420    5.2720  -16.5880 C   0  0  0  0  0  0  0  0  0  0  0  0
   -8.4200    3.6780  -11.0020 C   0  0  0  0  0  0  0  0  0  0  0  0
   -8.4360    4.5840   -9.9360 C   0  0  0  0  0  0  0  0  0  0  0  0
  2  3  1  0  0  0  0
  3  4  4  0  0  0  0
  3 25  4  0  0  0  0
  4  5  4  0  0  0  0
  5  8  1  0  0  0  0
  5 24  4  0  0  0  0
  6 11  1  0  0  0  0
  6  8  1  0  0  0  0
  7  8  2  0  0  0  0
  9 19  1  0  0  0  0
 11 13  4  0  0  0  0
 11 23  4  0  0  0  0
 13 15  4  0  0  0  0
  1 15  1  0  0  0  0
 15 16  4  0  0  0  0
 16 17  4  0  0  0  0
 17 18  1  0  0  0  0
 17 23  4  0  0  0  0
  9 18  1  0  0  0  0
 10 18  2  0  0  0  0
 19 20  1  0  0  0  0
 19 21  1  0  0  0  0
 19 22  1  0  0  0  0
 12 22  1  0  0  0  0
 24 25  4  0  0  0  0
 14 25  2  0  0  0  0
M  END
>  <pdb_header>
COMPND    XX01ZVNS2B-x2126_B_203_XX01ZVNS2B-x1291+B+301+1


$$$$
Zx2135a
  PyMOL3.0          3D                             0

 22 24  0  0  0  0  0  0  0  0999 V2000
   -5.1560    5.0130  -18.2440 C   0  0  0  0  0  0  0  0  0  0  0  0
   -7.2750    4.4970  -17.0530 N   0  0  0  0  0  0  0  0  0  0  0  0
   -8.6810    6.2910  -15.1720 O   0  0  0  0  0  0  0  0  0  0  0  0
   -6.6150    4.7640  -18.1640 C   0  0  0  0  0  0  0  0  0  0  0  0
   -9.1840    4.1130  -15.0130 N   0  0  0  0  0  0  0  0  0  0  0  0
   -8.6050    4.3580  -17.4030 C   0  0  0  0  0  0  0  0  0  0  0  0
   -8.4710    4.1760  -12.2700 N   0  0  0  0  0  0  0  0  0  0  0  0
   -9.6440    4.0060  -16.3890 C   0  0  0  0  0  0  0  0  0  0  0  0
   -8.8220    1.3790   -9.4990 N   0  0  0  0  0  0  0  0  0  0  0  0
   -8.8090    5.2790  -14.4860 C   0  0  0  0  0  0  0  0  0  0  0  0
   -8.2270    5.9230  -10.9370 N   0  0  0  0  0  0  0  0  0  0  0  0
   -8.5550    5.3120  -13.0410 C   0  0  0  0  0  0  0  0  0  0  0  0
   -7.4590    4.8130  -19.2080 N   0  0  0  0  0  0  0  0  0  0  0  0
   -8.2990    4.5820  -10.9720 C   0  0  0  0  0  0  0  0  0  0  0  0
   -7.9880    3.7600   -9.7600 C   0  0  0  0  0  0  0  0  0  0  0  0
   -8.8990    4.1230   -8.5640 C   0  0  0  0  0  0  0  0  0  0  0  0
   -9.7210    2.9880   -7.9520 C   0  0  0  0  0  0  0  0  0  0  0  0
   -9.0160    1.6570   -8.0740 C   0  0  0  0  0  0  0  0  0  0  0  0
   -7.8310    2.2800  -10.1060 C   0  0  0  0  0  0  0  0  0  0  0  0
   -8.4300    6.3810  -12.1710 C   0  0  0  0  0  0  0  0  0  0  0  0
   -8.4920    7.8520  -12.4070 C   0  0  0  0  0  0  0  0  0  0  0  0
   -8.7210    4.5390  -18.7470 C   0  0  0  0  0  0  0  0  0  0  0  0
  1  4  1  0  0  0  0
  2  6  4  0  0  0  0
  2  4  4  0  0  0  0
  4 13  4  0  0  0  0
  5 10  1  0  0  0  0
  6  8  1  0  0  0  0
  6 22  4  0  0  0  0
  7 14  4  0  0  0  0
  5  8  1  0  0  0  0
  9 19  1  0  0  0  0
  3 10  2  0  0  0  0
 10 12  1  0  0  0  0
 11 20  4  0  0  0  0
  7 12  4  0  0  0  0
 12 20  4  0  0  0  0
 11 14  4  0  0  0  0
 14 15  1  0  0  0  0
 15 16  1  0  0  0  0
 15 19  1  0  0  0  0
 16 17  1  0  0  0  0
 17 18  1  0  0  0  0
  9 18  1  0  0  0  0
 20 21  1  0  0  0  0
 13 22  4  0  0  0  0
M  END
>  <pdb_header>
HEADER    ----                                    23-FEB-23                     
TITLE     ---                                                                   
EXPDTA    X-RAY DIFFRACTION                                                     
REMARK --------------------- added by autoBUSTER ---------------------------------START
REMARK run at   = Wed Dec 20 16:59:39 GMT 2023
REMARK     in   = /dls/labxchem/data/lb32627/lb32627-65/processing/analysis/model_building/XX01ZVNS2B-x2135
REMARK     user = kyf22269
REMARK     cmd  = \
REMARK            /dls_sw/apps/GPhL/BUSTER/20211020/autoBUSTER/bin/linux64/refine \
REMARK            -p \
REMARK            /dls/labxchem/data/lb32627/lb32627-65/processing/analysis/model_building/XX01ZVNS2B-x2135/cootOut/Refi
REMARK            -m \
REMARK            /dls/labxchem/data/lb32627/lb32627-65/processing/analysis/model_building/XX01ZVNS2B-x2135/XX01ZVNS2B-x
REMARK            -l \
REMARK            /dls/labxchem/data/lb32627/lb32627-65/processing/analysis/model_building/XX01ZVNS2B-x2135/ASAP-0015093
REMARK            -autoncs -M TLSbasic -B user -Gelly gelly.dat -d Refine_3
REMARK Files used:
REMARK   PDB              = Refine_3/pdbchk.pdb
REMARK   MTZ              = /dls/labxchem/data/lb32627/lb32627-65/processing/analysis/model_building/XX01ZVNS2B-x2135/XX
REMARK   Gelly commands       = /dls/labxchem/data/lb32627/lb32627-65/processing/analysis/model_building/XX01ZVNS2B-x213
REMARK output written to subdirectory = Refine_3
REMARK best refinement for F,SIGF with R/Rfree 0.2353/0.2860
REMARK header records are copied from input PDB file (apart from REMARK 3!)
REMARK --------------------- added by autoBUSTER -----------------------------------END
REMARK --------------------- added by autoBUSTER -------------------------------
REMARK run at   = Tue Dec 19 17:40:38 GMT 2023                                  
REMARK     in   = /dls/labxchem/data/lb32627/lb32627-65/processing/analysis/mode
REMARK     user = kyf22269                                                      
REMARK     cmd  = \                                                             
REMARK            /dls_sw/apps/GPhL/BUSTER/20211020/autoBUSTER/bin/linux64/refin
REMARK            -p \                                                          
REMARK            /dls/labxchem/data/lb32627/lb32627-65/processing/analysis/mode
REMARK            -m \                                                          
REMARK            /dls/labxchem/data/lb32627/lb32627-65/processing/analysis/mode
REMARK            -l \                                                          
REMARK            /dls/labxchem/data/lb32627/lb32627-65/processing/analysis/mode
REMARK            -autoncs -M TLSbasic -d Refine_2                              
REMARK Files used:                                                              
REMARK   PDB              = Refine_2/pdbchk.pdb                                 
REMARK   MTZ              = /dls/labxchem/data/lb32627/lb32627-65/processing/ana
REMARK output written to subdirectory = Refine_2                                
REMARK best refinement for F,SIGF with R/Rfree 0.2413/0.2822                    
REMARK header records are copied from input PDB file (apart from REMARK 3!)     
REMARK --------------------- added by autoBUSTER -------------------------------
REMARK --------------------- added by autoBUSTER -------------------------------
REMARK run at   = Mon Dec 18 15:19:03 GMT 2023                                  
REMARK     in   = /dls/labxchem/data/lb32627/lb32627-65/processing/analysis/mode
REMARK     user = kyf22269                                                      
REMARK     cmd  = \                                                             
REMARK            /dls_sw/apps/GPhL/BUSTER/20211020/autoBUSTER/bin/linux64/refin
REMARK            -p \                                                          
REMARK            /dls/labxchem/data/lb32627/lb32627-65/processing/analysis/mode
REMARK            -m \                                                          
REMARK            /dls/labxchem/data/lb32627/lb32627-65/processing/analysis/mode
REMARK            -l \                                                          
REMARK            /dls/labxchem/data/lb32627/lb32627-65/processing/analysis/mode
REMARK            -autoncs -M TLSbasic StopOnGellySanityCheckError=no -d \      
REMARK            Refine_1                                                      
REMARK Files used:                                                              
REMARK   PDB              = Refine_1/pdbchk.pdb                                 
REMARK   MTZ              = /dls/labxchem/data/lb32627/lb32627-65/processing/ana
REMARK output written to subdirectory = Refine_1                                
REMARK best refinement for F,SIGF with R/Rfree 0.2395/0.2826                    
REMARK header records are copied from input PDB file (apart from REMARK 3!)     
REMARK --------------------- added by autoBUSTER -------------------------------
REMARK   2                                                            
REMARK   2 RESOLUTION.    2.10 ANGSTROMS.
REMARK   3
REMARK   3 REFINEMENT.
REMARK   3   PROGRAM     : BUSTER 2.10.4 (20-OCT-2021)
REMARK   3   AUTHORS     : BRICOGNE,BLANC,BRANDL,FLENSBURG,KELLER,
REMARK   3               : PACIOREK,ROVERSI,SHARFF,SMART,VONRHEIN,WOMACK;
REMARK   3               : MATTHEWS,TEN EYCK,TRONRUD
REMARK   3
REMARK   3  DATA USED IN REFINEMENT.
REMARK   3   RESOLUTION RANGE HIGH (ANGSTROMS) : 2.100
REMARK   3   RESOLUTION RANGE LOW  (ANGSTROMS) : 41.84
REMARK   3   DATA CUTOFF            (SIGMA(F)) : 0.000
REMARK   3   COMPLETENESS FOR RANGE        (%) : 98.6
REMARK   3   NUMBER OF REFLECTIONS             : 12408
REMARK   3
REMARK   3  FIT TO DATA USED IN REFINEMENT.
REMARK   3   CROSS-VALIDATION METHOD          : THROUGHOUT
REMARK   3   FREE R VALUE TEST SET SELECTION  : RANDOM
REMARK   3   R VALUE     (WORKING + TEST SET) : 0.2382
REMARK   3   R VALUE            (WORKING SET) : 0.2356
REMARK   3   FREE R VALUE                     : 0.2861
REMARK   3   FREE R VALUE TEST SET SIZE   (%) : 4.790
REMARK   3   FREE R VALUE TEST SET COUNT      : 594
REMARK   3   ESTIMATED ERROR OF FREE R VALUE  : NULL
REMARK   3
REMARK   3  FIT IN THE HIGHEST RESOLUTION BIN.
REMARK   3   TOTAL NUMBER OF BINS USED           : 30
REMARK   3   BIN RESOLUTION RANGE HIGH       (A) : 2.10
REMARK   3   BIN RESOLUTION RANGE LOW        (A) : 2.13
REMARK   3   BIN COMPLETENESS (WORKING+TEST) (%) : 90.74
REMARK   3   REFLECTIONS IN BIN   (WORKING+TEST) : 428
REMARK   3   BIN R VALUE          (WORKING+TEST) : 0.4159
REMARK   3   REFLECTIONS IN BIN    (WORKING SET) : 407
REMARK   3   BIN R VALUE           (WORKING SET) : 0.4151
REMARK   3   BIN FREE R VALUE                    : 0.4319
REMARK   3   BIN FREE R VALUE TEST SET SIZE  (%) : 4.91
REMARK   3   BIN FREE R VALUE TEST SET COUNT     : 21
REMARK   3   ESTIMATED ERROR OF BIN FREE R VALUE : NULL
REMARK   3
REMARK   3  NUMBER OF NON-HYDROGEN ATOMS USED IN REFINEMENT.
REMARK   3   PROTEIN ATOMS            : 1472
REMARK   3   NUCLEIC ACID ATOMS       : 0
REMARK   3   HETEROGEN ATOMS          : 43
REMARK   3   SOLVENT ATOMS            : 50
REMARK   3
REMARK   3  B VALUES.
REMARK   3   FROM WILSON PLOT           (A**2) : 50.74
REMARK   3   MEAN B VALUE      (OVERALL, A**2) : 69.82
REMARK   3   OVERALL ANISOTROPIC B VALUE.
REMARK   3    B11 (A**2) : -6.37200
REMARK   3    B22 (A**2) : -6.37200
REMARK   3    B33 (A**2) : 12.74400
REMARK   3    B12 (A**2) : 0.00000
REMARK   3    B13 (A**2) : 0.00000
REMARK   3    B23 (A**2) : 0.00000
REMARK   3
REMARK   3  ESTIMATED COORDINATE ERROR.
REMARK   3   ESD FROM LUZZATI PLOT                    (A) : 0.38
REMARK   3   DPI (BLOW EQ-10) BASED ON R VALUE        (A) : 0.277
REMARK   3   DPI (BLOW EQ-9) BASED ON FREE R VALUE    (A) : 0.222
REMARK   3   DPI (CRUICKSHANK) BASED ON R VALUE       (A) : 0.253
REMARK   3   DPI (CRUICKSHANK) BASED ON FREE R VALUE  (A) : 0.215
REMARK   3
REMARK   3   REFERENCES: BLOW, D. (2002) ACTA CRYST D58, 792-797
REMARK   3               CRUICKSHANK, D.W.J. (1999) ACTA CRYST D55, 583-601
REMARK   3
REMARK   3  CORRELATION COEFFICIENTS.
REMARK   3   CORRELATION COEFFICIENT FO-FC      : 0.944
REMARK   3   CORRELATION COEFFICIENT FO-FC FREE : 0.920
REMARK   3
REMARK   3  X-RAY WEIGHT : 7.54
REMARK   3
REMARK   3  GEOMETRY FUNCTION.                                                  
REMARK   3   RESTRAINT LIBRARIES.                                               
REMARK   3    NUMBER OF LIBRARIES USED :  10                                    
REMARK   3    LIBRARY  1 : protgeo_eh99.dat (V1.6.4.17) 20191001  STANDARD      
REMARK   3                 AMINO ACID DICTIONARY. BONDS AND ANGLES FROM         
REMARK   3                 ENGH AND HUBER EH99. OTHER VALUES BASED ON           
REMARK   3                 PREVIOUS TNT OR TAKEN FROM CCP4. INCLUDES            
REMARK   3                 HYDROGEN ATOMS.                                      
REMARK   3    LIBRARY  2 : exoticaa.dat (V1.3.4.15) 20200327  COLLECTION        
REMARK   3                 OF NON-STANDARD AMINO ACIDS, MAINLY EH91             
REMARK   3                 WITHOUT IDEAL DISTANCE INFO                          
REMARK   3    LIBRARY  3 : nuclgeo.dat (V1.13.4.8) 20190909                     
REMARK   3    LIBRARY  4 : bcorrel.dat (V1.15.10.2) 20190616                    
REMARK   3    LIBRARY  5 : contact.dat (V1.15.12.10) 20191121                   
REMARK   3    LIBRARY  6 : idealdist_contact.dat (V1.3.4.12) 20191001           
REMARK   3                 IDEAL-DISTANCE CONTACT TERM DATA AS USED IN          
REMARK   3                 PROLSQ. VALUES USED HERE ARE BASED ON DATA           
REMARK   3                 HARVESTING OF PDB AS OF 20190109.                    
REMARK   3    LIBRARY  7 : restraints for LIG from cif dictionary               
REMARK   3                 ASAP-0015093-001.cif                                 
REMARK   3    LIBRARY  8 : restraints for DMS (DIMETHYL SULFOXIDE) from         
REMARK   3                 cif dictionary DMS.cif; buster common-compounds      
REMARK   3                 v 2.0 (19 Dec 2011)                                  
REMARK   3    LIBRARY  9 : restraints for SO4 (SULFATE ION) from cif            
REMARK   3                 dictionary SO4.cif; buster common-compounds v        
REMARK   3                 2.0 (19 Dec 2011)                                    
REMARK   3    LIBRARY 10 : assume.dat (V1.9.4.2) 20180705                       
REMARK   3                                                                      
REMARK   3   NUMBER OF GEOMETRIC FUNCTION TERMS DEFINED : 15                    
REMARK   3   TERM                          COUNT    WEIGHT   FUNCTION.          
REMARK   3    BOND LENGTHS              :   1567 ;   2.00 ;  HARMONIC           
REMARK   3    BOND ANGLES               :   2128 ;   2.00 ;  HARMONIC           
REMARK   3    TORSION ANGLES            :    534 ;   2.00 ;  SINUSOIDAL         
REMARK   3    TRIGONAL CARBON PLANES    :   NULL ;   NULL ;  NULL               
REMARK   3    GENERAL PLANES            :    266 ;   5.00 ;  HARMONIC           
REMARK   3    ISOTROPIC THERMAL FACTORS :   1543 ;  10.00 ;  HARMONIC           
REMARK   3    BAD NON-BONDED CONTACTS   :   NULL ;   NULL ;  NULL               
REMARK   3    IMPROPER TORSIONS         :   NULL ;   NULL ;  NULL               
REMARK   3    PSEUDOROTATION ANGLES     :   NULL ;   NULL ;  NULL               
REMARK   3    CHIRAL IMPROPER TORSION   :    194 ;   5.00 ;  SEMIHARMONIC       
REMARK   3    SUM OF OCCUPANCIES        :   NULL ;   NULL ;  NULL               
REMARK   3    UTILITY DISTANCES         :   NULL ;   NULL ;  NULL               
REMARK   3    UTILITY ANGLES            :   NULL ;   NULL ;  NULL               
REMARK   3    UTILITY TORSION           :   NULL ;   NULL ;  NULL               
REMARK   3    IDEAL-DIST CONTACT TERM   :   1182 ;   4.00 ;  SEMIHARMONIC       
REMARK   3                                                                      
REMARK   3   RMS DEVIATIONS FROM IDEAL VALUES.                                  
REMARK   3   BOND LENGTHS                       (A) : 0.008                     
REMARK   3   BOND ANGLES                  (DEGREES) : 1.02                      
REMARK   3   PEPTIDE OMEGA TORSION ANGLES (DEGREES) : 3.47                      
REMARK   3   OTHER TORSION ANGLES         (DEGREES) : 18.73                     
REMARK   3                                                                      
REMARK   3   SIMILARITY.                                                        
REMARK   3    NCS.                                                              
REMARK   3     NCS METHOD: NONE                                                 
REMARK   3    TARGET RESTRAINTS.                                                
REMARK   3     TARGET REPRESENTATION : NONE                                     
REMARK   3     TARGET STRUCTURE : NULL                                          
REMARK   3                                                                      
REMARK   3  TLS DETAILS.                                                        
REMARK   3   NUMBER OF TLS GROUPS  :            2                               
REMARK   3                                                                      
REMARK   3   TLS GROUP :            1                                           
REMARK   3    SET : { A|* }                                                     
REMARK   3    ORIGIN FOR THE GROUP (A):  -14.0575   -1.6117  -19.4979           
REMARK   3    T TENSOR                                                          
REMARK   3     T11:   -0.1392 T22:   -0.1586                                    
REMARK   3     T33:   -0.3570 T12:    0.2727                                    
REMARK   3     T13:    0.2071 T23:    0.1618                                    
REMARK   3    L TENSOR                                                          
REMARK   3     L11:    5.0694 L22:    6.2995                                    
REMARK   3     L33:    6.7686 L12:   -2.6078                                    
REMARK   3     L13:    1.2634 L23:    1.7850                                    
REMARK   3    S TENSOR                                                          
REMARK   3     S11:    0.6405 S12:    0.5032 S13:    0.1678                     
REMARK   3     S21:   -0.6531 S22:   -0.4480 S23:   -0.4392                     
REMARK   3     S31:   -0.1819 S32:    0.4482 S33:   -0.1926                     
REMARK   3                                                                      
REMARK   3   TLS GROUP :            2                                           
REMARK   3    SET : { B|* }                                                     
REMARK   3    ORIGIN FOR THE GROUP (A):  -18.6678    0.8121  -15.8087           
REMARK   3    T TENSOR                                                          
REMARK   3     T11:    0.1064 T22:    0.0146                                    
REMARK   3     T33:   -0.1780 T12:    0.2814                                    
REMARK   3     T13:    0.0672 T23:    0.0628                                    
REMARK   3    L TENSOR                                                          
REMARK   3     L11:    1.6810 L22:    2.4390                                    
REMARK   3     L33:    2.6205 L12:   -1.2593                                    
REMARK   3     L13:    0.8471 L23:    0.2396                                    
REMARK   3    S TENSOR                                                          
REMARK   3     S11:    0.4774 S12:    0.1746 S13:    0.1462                     
REMARK   3     S21:   -0.2633 S22:   -0.4973 S23:    0.0646                     
REMARK   3     S31:    0.0525 S32:    0.1790 S33:    0.0200                     
REMARK   3                                                                      
REMARK   3  REFINEMENT NOTES.                                                   
REMARK   3   NUMBER OF REFINEMENT NOTES :   1                                   
REMARK   3   NOTE   1 : IDEAL-DIST CONTACT TERM CONTACT SETUP. ALL ATOMS        
REMARK   3               HAVE CCP4 ATOM TYPE FROM LIBRARY                       
REMARK   3
REMARK   3  OTHER REFINEMENT REMARKS: NULL
REMARK   3
REMARK 290                                                            
REMARK 290 CRYSTALLOGRAPHIC SYMMETRY                                  
REMARK 290 SYMMETRY OPERATORS FOR SPACE GROUP: P 43 2 2               
REMARK 290                                                            
REMARK 290      SYMOP   SYMMETRY                                      
REMARK 290     NNNMMM   OPERATOR                                      
REMARK 290       1555   X,Y,Z                                         
REMARK 290       2555   -X,-Y,1/2+Z                                   
REMARK 290       3555   -Y,X,3/4+Z                                    
REMARK 290       4555   Y,-X,1/4+Z                                    
REMARK 290       5555   -X,Y,-Z                                       
REMARK 290       6555   X,-Y,1/2-Z                                    
REMARK 290       7555   Y,X,1/4-Z                                     
REMARK 290       8555   -Y,-X,3/4-Z                                   
REMARK 290                                                            
REMARK 290     WHERE NNN -> OPERATOR NUMBER                           
REMARK 290           MMM -> TRANSLATION VECTOR                        
REMARK 290                                                            
REMARK 290 CRYSTALLOGRAPHIC SYMMETRY TRANSFORMATIONS                  
REMARK 290 THE FOLLOWING TRANSFORMATIONS OPERATE ON THE ATOM/HETATM   
REMARK 290 RECORDS IN THIS ENTRY TO PRODUCE CRYSTALLOGRAPHICALLY      
REMARK 290 RELATED MOLECULES.                                         
REMARK 290   SMTRY1   1  1.000000  0.000000  0.000000        0.00000
REMARK 290   SMTRY2   1  0.000000  1.000000  0.000000        0.00000
REMARK 290   SMTRY3   1  0.000000  0.000000  1.000000        0.00000
REMARK 290   SMTRY1   2 -1.000000  0.000000  0.000000        0.00000
REMARK 290   SMTRY2   2  0.000000 -1.000000  0.000000        0.00000
REMARK 290   SMTRY3   2  0.000000  0.000000  1.000000      108.15500
REMARK 290   SMTRY1   3  0.000000 -1.000000  0.000000        0.00000
REMARK 290   SMTRY2   3  1.000000  0.000000  0.000000        0.00000
REMARK 290   SMTRY3   3  0.000000  0.000000  1.000000      162.23250
REMARK 290   SMTRY1   4  0.000000  1.000000  0.000000        0.00000
REMARK 290   SMTRY2   4 -1.000000  0.000000  0.000000        0.00000
REMARK 290   SMTRY3   4  0.000000  0.000000  1.000000       54.07750
REMARK 290   SMTRY1   5 -1.000000  0.000000  0.000000        0.00000
REMARK 290   SMTRY2   5  0.000000  1.000000  0.000000        0.00000
REMARK 290   SMTRY3   5  0.000000  0.000000 -1.000000        0.00000
REMARK 290   SMTRY1   6  1.000000  0.000000  0.000000        0.00000
REMARK 290   SMTRY2   6  0.000000 -1.000000  0.000000        0.00000
REMARK 290   SMTRY3   6  0.000000  0.000000 -1.000000      108.15500
REMARK 290   SMTRY1   7  0.000000  1.000000  0.000000        0.00000
REMARK 290   SMTRY2   7  1.000000  0.000000  0.000000        0.00000
REMARK 290   SMTRY3   7  0.000000  0.000000 -1.000000       54.07750
REMARK 290   SMTRY1   8  0.000000 -1.000000  0.000000        0.00000
REMARK 290   SMTRY2   8 -1.000000  0.000000  0.000000        0.00000
REMARK 290   SMTRY3   8  0.000000  0.000000 -1.000000      162.23250
REMARK 290                                                            
REMARK 290 REMARK: NULL                                               
CRYST1   42.640   42.640  216.310  90.00  90.00  90.00 P 43 2 2                 


$$$$
Zx2135a_ligand
  PyMOL3.0          3D                             0

 22 24  0  0  0  0  0  0  0  0999 V2000
   -5.1560    5.0130  -18.2440 C   0  0  0  0  0  0  0  0  0  0  0  0
   -7.2750    4.4970  -17.0530 N   0  0  0  0  0  0  0  0  0  0  0  0
   -8.6810    6.2910  -15.1720 O   0  0  0  0  0  0  0  0  0  0  0  0
   -6.6150    4.7640  -18.1640 C   0  0  0  0  0  0  0  0  0  0  0  0
   -9.1840    4.1130  -15.0130 N   0  0  0  0  0  0  0  0  0  0  0  0
   -8.6050    4.3580  -17.4030 C   0  0  0  0  0  0  0  0  0  0  0  0
   -8.4710    4.1760  -12.2700 N   0  0  0  0  0  0  0  0  0  0  0  0
   -9.6440    4.0060  -16.3890 C   0  0  0  0  0  0  0  0  0  0  0  0
   -8.8220    1.3790   -9.4990 N   0  0  0  0  0  0  0  0  0  0  0  0
   -8.8090    5.2790  -14.4860 C   0  0  0  0  0  0  0  0  0  0  0  0
   -8.2270    5.9230  -10.9370 N   0  0  0  0  0  0  0  0  0  0  0  0
   -8.5550    5.3120  -13.0410 C   0  0  0  0  0  0  0  0  0  0  0  0
   -7.4590    4.8130  -19.2080 N   0  0  0  0  0  0  0  0  0  0  0  0
   -8.2990    4.5820  -10.9720 C   0  0  0  0  0  0  0  0  0  0  0  0
   -7.9880    3.7600   -9.7600 C   0  0  0  0  0  0  0  0  0  0  0  0
   -8.8990    4.1230   -8.5640 C   0  0  0  0  0  0  0  0  0  0  0  0
   -9.7210    2.9880   -7.9520 C   0  0  0  0  0  0  0  0  0  0  0  0
   -9.0160    1.6570   -8.0740 C   0  0  0  0  0  0  0  0  0  0  0  0
   -7.8310    2.2800  -10.1060 C   0  0  0  0  0  0  0  0  0  0  0  0
   -8.4300    6.3810  -12.1710 C   0  0  0  0  0  0  0  0  0  0  0  0
   -8.4920    7.8520  -12.4070 C   0  0  0  0  0  0  0  0  0  0  0  0
   -8.7210    4.5390  -18.7470 C   0  0  0  0  0  0  0  0  0  0  0  0
  1  4  1  0  0  0  0
  2  6  4  0  0  0  0
  2  4  4  0  0  0  0
  4 13  4  0  0  0  0
  5 10  1  0  0  0  0
  6  8  1  0  0  0  0
  6 22  4  0  0  0  0
  7 14  4  0  0  0  0
  5  8  1  0  0  0  0
  9 19  1  0  0  0  0
  3 10  2  0  0  0  0
 10 12  1  0  0  0  0
 11 20  4  0  0  0  0
  7 12  4  0  0  0  0
 12 20  4  0  0  0  0
 11 14  4  0  0  0  0
 14 15  1  0  0  0  0
 15 16  1  0  0  0  0
 15 19  1  0  0  0  0
 16 17  1  0  0  0  0
 17 18  1  0  0  0  0
  9 18  1  0  0  0  0
 20 21  1  0  0  0  0
 13 22  4  0  0  0  0
M  END
>  <pdb_header>
COMPND    XX01ZVNS2B-x2135_B_301_XX01ZVNS2B-x1291+B+301+1


$$$$
Zx2217a
  PyMOL3.0          3D                             0

 24 26  0  0  0  0  0  0  0  0999 V2000
   -2.6210    6.7960  -20.1920 C   0  0  0  0  0  0  0  0  0  0  0  0
   -4.7030    5.5120  -20.5280 N   0  0  0  0  0  0  0  0  0  0  0  0
   -7.0250    5.7710  -13.3970 O   0  0  0  0  0  0  0  0  0  0  0  0
   -3.2330    5.4810  -20.6390 C   0  0  0  0  0  0  0  0  0  0  0  0
   -6.7410    4.8960  -19.5660 N   0  0  0  0  0  0  0  0  0  0  0  0
   -9.1420    3.6070   -7.5160 O   0  0  0  0  0  0  0  0  0  0  0  0
   -2.6360    4.2900  -19.9110 C   0  0  0  0  0  0  0  0  0  0  0  0
   -8.6170    4.1680  -13.3840 N   0  0  0  0  0  0  0  0  0  0  0  0
   -5.4710    5.2410  -19.4510 C   0  0  0  0  0  0  0  0  0  0  0  0
   -8.6700    4.8590   -9.8890 N   0  0  0  0  0  0  0  0  0  0  0  0
   -7.2030    4.8450  -18.2490 C   0  0  0  0  0  0  0  0  0  0  0  0
   -9.3740    1.6020   -8.5050 N   0  0  0  0  0  0  0  0  0  0  0  0
   -8.4560    4.4950  -17.7470 C   0  0  0  0  0  0  0  0  0  0  0  0
   -5.0950    5.5110  -18.1720 N   0  0  0  0  0  0  0  0  0  0  0  0
   -8.6270    4.4830  -16.3820 C   0  0  0  0  0  0  0  0  0  0  0  0
   -7.6120    4.8930  -15.5040 C   0  0  0  0  0  0  0  0  0  0  0  0
   -7.7450    5.0040  -14.0150 C   0  0  0  0  0  0  0  0  0  0  0  0
   -8.7390    4.1520  -11.9810 C   0  0  0  0  0  0  0  0  0  0  0  0
   -8.5200    5.2400  -11.1730 C   0  0  0  0  0  0  0  0  0  0  0  0
   -8.9490    3.5190   -9.8480 C   0  0  0  0  0  0  0  0  0  0  0  0
   -9.1580    2.9080   -8.5370 C   0  0  0  0  0  0  0  0  0  0  0  0
   -8.9960    3.0540  -11.1440 C   0  0  0  0  0  0  0  0  0  0  0  0
   -6.3760    5.2560  -16.0040 C   0  0  0  0  0  0  0  0  0  0  0  0
   -6.1840    5.2250  -17.3710 C   0  0  0  0  0  0  0  0  0  0  0  0
  1  4  1  0  0  0  0
  2  9  1  0  0  0  0
  2  4  1  0  0  0  0
  4  7  1  0  0  0  0
  5 11  4  0  0  0  0
  8 18  1  0  0  0  0
  5  9  4  0  0  0  0
  9 14  4  0  0  0  0
 10 20  4  0  0  0  0
 11 13  4  0  0  0  0
 11 24  4  0  0  0  0
 13 15  4  0  0  0  0
 15 16  4  0  0  0  0
 16 17  1  0  0  0  0
 16 23  4  0  0  0  0
  3 17  2  0  0  0  0
  8 17  1  0  0  0  0
 18 19  4  0  0  0  0
 18 22  4  0  0  0  0
 10 19  4  0  0  0  0
 20 21  1  0  0  0  0
 20 22  4  0  0  0  0
  6 21  2  0  0  0  0
 12 21  1  0  0  0  0
 23 24  4  0  0  0  0
 14 24  4  0  0  0  0
M  END
>  <pdb_header>
HEADER    ----                                    23-FEB-23                     
TITLE     ---                                                                   
EXPDTA    X-RAY DIFFRACTION                                                     
REMARK --------------------- added by autoBUSTER ---------------------------------START
REMARK run at   = Wed Jan 24 11:32:55 GMT 2024
REMARK     in   = /dls/labxchem/data/lb32627/lb32627-65/processing/analysis/model_building/XX01ZVNS2B-x2217
REMARK     user = kyf22269
REMARK     cmd  = \
REMARK            /dls_sw/apps/GPhL/BUSTER/20211020/autoBUSTER/bin/linux64/refine \
REMARK            -p \
REMARK            /dls/labxchem/data/lb32627/lb32627-65/processing/analysis/model_building/XX01ZVNS2B-x2217/cootOut/Refi
REMARK            -m \
REMARK            /dls/labxchem/data/lb32627/lb32627-65/processing/analysis/model_building/XX01ZVNS2B-x2217/XX01ZVNS2B-x
REMARK            -l \
REMARK            /dls/labxchem/data/lb32627/lb32627-65/processing/analysis/model_building/XX01ZVNS2B-x2217/ASAP-0015216
REMARK            -autoncs -M TLSbasic -d Refine_6
REMARK Files used:
REMARK   PDB              = Refine_6/pdbchk.pdb
REMARK   MTZ              = /dls/labxchem/data/lb32627/lb32627-65/processing/analysis/model_building/XX01ZVNS2B-x2217/XX
REMARK output written to subdirectory = Refine_6
REMARK best refinement for F,SIGF with R/Rfree 0.2452/0.2695
REMARK header records are copied from input PDB file (apart from REMARK 3!)
REMARK --------------------- added by autoBUSTER -----------------------------------END
REMARK --------------------- added by autoBUSTER -------------------------------
REMARK run at   = Fri Jan 19 13:12:43 GMT 2024                                  
REMARK     in   = /dls/labxchem/data/lb32627/lb32627-65/processing/analysis/mode
REMARK     user = xau79897                                                      
REMARK     cmd  = \                                                             
REMARK            /dls_sw/apps/GPhL/BUSTER/20230726/autoBUSTER/bin/linux64/refin
REMARK            -p \                                                          
REMARK            /dls/labxchem/data/lb32627/lb32627-65/processing/analysis/mode
REMARK            -m \                                                          
REMARK            /dls/labxchem/data/lb32627/lb32627-65/processing/analysis/mode
REMARK            -l \                                                          
REMARK            /dls/labxchem/data/lb32627/lb32627-65/processing/analysis/mode
REMARK            -autoncs -M TLSbasic -B user -Gelly gelly.dat \               
REMARK            StopOnGellySanityCheckError=no -d Refine_5                    
REMARK Files used:                                                              
REMARK   PDB              = Refine_5/pdbchk.pdb                                 
REMARK   MTZ              = /dls/labxchem/data/lb32627/lb32627-65/processing/ana
REMARK   Gelly commands       = /dls/labxchem/data/lb32627/lb32627-65/processing
REMARK output written to subdirectory = Refine_5                                
REMARK best refinement for F,SIGF with R/Rfree 0.2442/0.2715                    
REMARK header records are copied from input PDB file (apart from REMARK 3!)     
REMARK --------------------- added by autoBUSTER -------------------------------
REMARK --------------------- added by autoBUSTER -------------------------------
REMARK run at   = Thu Dec 21 14:57:05 GMT 2023                                  
REMARK     in   = /dls/labxchem/data/lb32627/lb32627-65/processing/analysis/mode
REMARK     user = kyf22269                                                      
REMARK     cmd  = \                                                             
REMARK            /dls_sw/apps/GPhL/BUSTER/20211020/autoBUSTER/bin/linux64/refin
REMARK            -p \                                                          
REMARK            /dls/labxchem/data/lb32627/lb32627-65/processing/analysis/mode
REMARK            -m \                                                          
REMARK            /dls/labxchem/data/lb32627/lb32627-65/processing/analysis/mode
REMARK            -l \                                                          
REMARK            /dls/labxchem/data/lb32627/lb32627-65/processing/analysis/mode
REMARK            -autoncs -M TLSbasic -d Refine_4                              
REMARK Files used:                                                              
REMARK   PDB              = Refine_4/pdbchk.pdb                                 
REMARK   MTZ              = /dls/labxchem/data/lb32627/lb32627-65/processing/ana
REMARK output written to subdirectory = Refine_4                                
REMARK best refinement for F,SIGF with R/Rfree 0.2520/0.2793                    
REMARK header records are copied from input PDB file (apart from REMARK 3!)     
REMARK --------------------- added by autoBUSTER -------------------------------
REMARK --------------------- added by autoBUSTER -------------------------------
REMARK run at   = Wed Dec 20 17:12:08 GMT 2023                                  
REMARK     in   = /dls/labxchem/data/lb32627/lb32627-65/processing/analysis/mode
REMARK     user = kyf22269                                                      
REMARK     cmd  = \                                                             
REMARK            /dls_sw/apps/GPhL/BUSTER/20211020/autoBUSTER/bin/linux64/refin
REMARK            -p \                                                          
REMARK            /dls/labxchem/data/lb32627/lb32627-65/processing/analysis/mode
REMARK            -m \                                                          
REMARK            /dls/labxchem/data/lb32627/lb32627-65/processing/analysis/mode
REMARK            -l \                                                          
REMARK            /dls/labxchem/data/lb32627/lb32627-65/processing/analysis/mode
REMARK            -autoncs -M TLSbasic -d Refine_3                              
REMARK Files used:                                                              
REMARK   PDB              = Refine_3/pdbchk.pdb                                 
REMARK   MTZ              = /dls/labxchem/data/lb32627/lb32627-65/processing/ana
REMARK output written to subdirectory = Refine_3                                
REMARK best refinement for F,SIGF with R/Rfree 0.2434/0.2625                    
REMARK header records are copied from input PDB file (apart from REMARK 3!)     
REMARK --------------------- added by autoBUSTER -------------------------------
REMARK --------------------- added by autoBUSTER -------------------------------
REMARK run at   = Tue Dec 19 18:07:27 GMT 2023                                  
REMARK     in   = /dls/labxchem/data/lb32627/lb32627-65/processing/analysis/mode
REMARK     user = kyf22269                                                      
REMARK     cmd  = \                                                             
REMARK            /dls_sw/apps/GPhL/BUSTER/20211020/autoBUSTER/bin/linux64/refin
REMARK            -p \                                                          
REMARK            /dls/labxchem/data/lb32627/lb32627-65/processing/analysis/mode
REMARK            -m \                                                          
REMARK            /dls/labxchem/data/lb32627/lb32627-65/processing/analysis/mode
REMARK            -l \                                                          
REMARK            /dls/labxchem/data/lb32627/lb32627-65/processing/analysis/mode
REMARK            -autoncs -M TLSbasic -d Refine_2                              
REMARK Files used:                                                              
REMARK   PDB              = Refine_2/pdbchk.pdb                                 
REMARK   MTZ              = /dls/labxchem/data/lb32627/lb32627-65/processing/ana
REMARK output written to subdirectory = Refine_2                                
REMARK best refinement for F,SIGF with R/Rfree 0.2451/0.2659                    
REMARK header records are copied from input PDB file (apart from REMARK 3!)     
REMARK --------------------- added by autoBUSTER -------------------------------
REMARK --------------------- added by autoBUSTER -------------------------------
REMARK run at   = Mon Dec 18 15:19:04 GMT 2023                                  
REMARK     in   = /dls/labxchem/data/lb32627/lb32627-65/processing/analysis/mode
REMARK     user = kyf22269                                                      
REMARK     cmd  = \                                                             
REMARK            /dls_sw/apps/GPhL/BUSTER/20211020/autoBUSTER/bin/linux64/refin
REMARK            -p \                                                          
REMARK            /dls/labxchem/data/lb32627/lb32627-65/processing/analysis/mode
REMARK            -m \                                                          
REMARK            /dls/labxchem/data/lb32627/lb32627-65/processing/analysis/mode
REMARK            -l \                                                          
REMARK            /dls/labxchem/data/lb32627/lb32627-65/processing/analysis/mode
REMARK            -autoncs -M TLSbasic StopOnGellySanityCheckError=no -d \      
REMARK            Refine_1                                                      
REMARK Files used:                                                              
REMARK   PDB              = Refine_1/pdbchk.pdb                                 
REMARK   MTZ              = /dls/labxchem/data/lb32627/lb32627-65/processing/ana
REMARK output written to subdirectory = Refine_1                                
REMARK best refinement for F,SIGF with R/Rfree 0.2448/0.2879                    
REMARK header records are copied from input PDB file (apart from REMARK 3!)     
REMARK --------------------- added by autoBUSTER -------------------------------
REMARK   2                                                            
REMARK   2 RESOLUTION.    1.63 ANGSTROMS.
REMARK   3
REMARK   3 REFINEMENT.
REMARK   3   PROGRAM     : BUSTER 2.10.4 (20-OCT-2021)
REMARK   3   AUTHORS     : BRICOGNE,BLANC,BRANDL,FLENSBURG,KELLER,
REMARK   3               : PACIOREK,ROVERSI,SHARFF,SMART,VONRHEIN,WOMACK;
REMARK   3               : MATTHEWS,TEN EYCK,TRONRUD
REMARK   3
REMARK   3  DATA USED IN REFINEMENT.
REMARK   3   RESOLUTION RANGE HIGH (ANGSTROMS) : 1.626
REMARK   3   RESOLUTION RANGE LOW  (ANGSTROMS) : 23.12
REMARK   3   DATA CUTOFF            (SIGMA(F)) : 0.000
REMARK   3   COMPLETENESS FOR RANGE        (%) : 81.5
REMARK   3   NUMBER OF REFLECTIONS             : 21449
REMARK   3
REMARK   3  FIT TO DATA USED IN REFINEMENT.
REMARK   3   CROSS-VALIDATION METHOD          : THROUGHOUT
REMARK   3   FREE R VALUE TEST SET SELECTION  : RANDOM
REMARK   3   R VALUE     (WORKING + TEST SET) : 0.2464
REMARK   3   R VALUE            (WORKING SET) : 0.2452
REMARK   3   FREE R VALUE                     : 0.2695
REMARK   3   FREE R VALUE TEST SET SIZE   (%) : 5.090
REMARK   3   FREE R VALUE TEST SET COUNT      : 1092
REMARK   3   ESTIMATED ERROR OF FREE R VALUE  : NULL
REMARK   3
REMARK   3  FIT IN THE HIGHEST RESOLUTION BIN.
REMARK   3   TOTAL NUMBER OF BINS USED           : 51
REMARK   3   BIN RESOLUTION RANGE HIGH       (A) : 1.63
REMARK   3   BIN RESOLUTION RANGE LOW        (A) : 1.73
REMARK   3   BIN COMPLETENESS (WORKING+TEST) (%) : 9.48
REMARK   3   REFLECTIONS IN BIN   (WORKING+TEST) : 429
REMARK   3   BIN R VALUE          (WORKING+TEST) : 0.6443
REMARK   3   REFLECTIONS IN BIN    (WORKING SET) : 401
REMARK   3   BIN R VALUE           (WORKING SET) : 0.6503
REMARK   3   BIN FREE R VALUE                    : 0.5531
REMARK   3   BIN FREE R VALUE TEST SET SIZE  (%) : 6.53
REMARK   3   BIN FREE R VALUE TEST SET COUNT     : 28
REMARK   3   ESTIMATED ERROR OF BIN FREE R VALUE : NULL
REMARK   3
REMARK   3  NUMBER OF NON-HYDROGEN ATOMS USED IN REFINEMENT.
REMARK   3   PROTEIN ATOMS            : 1476
REMARK   3   NUCLEIC ACID ATOMS       : 0
REMARK   3   HETEROGEN ATOMS          : 38
REMARK   3   SOLVENT ATOMS            : 80
REMARK   3
REMARK   3  B VALUES.
REMARK   3   FROM WILSON PLOT           (A**2) : 38.31
REMARK   3   MEAN B VALUE      (OVERALL, A**2) : 67.59
REMARK   3   OVERALL ANISOTROPIC B VALUE.
REMARK   3    B11 (A**2) : -8.19950
REMARK   3    B22 (A**2) : -8.19950
REMARK   3    B33 (A**2) : 16.39890
REMARK   3    B12 (A**2) : 0.00000
REMARK   3    B13 (A**2) : 0.00000
REMARK   3    B23 (A**2) : 0.00000
REMARK   3
REMARK   3  ESTIMATED COORDINATE ERROR.
REMARK   3   ESD FROM LUZZATI PLOT                    (A) : 0.42
REMARK   3   DPI (BLOW EQ-10) BASED ON R VALUE        (A) : 0.148
REMARK   3   DPI (BLOW EQ-9) BASED ON FREE R VALUE    (A) : 0.132
REMARK   3   DPI (CRUICKSHANK) BASED ON R VALUE       (A) : 0.140
REMARK   3   DPI (CRUICKSHANK) BASED ON FREE R VALUE  (A) : 0.129
REMARK   3
REMARK   3   REFERENCES: BLOW, D. (2002) ACTA CRYST D58, 792-797
REMARK   3               CRUICKSHANK, D.W.J. (1999) ACTA CRYST D55, 583-601
REMARK   3
REMARK   3  CORRELATION COEFFICIENTS.
REMARK   3   CORRELATION COEFFICIENT FO-FC      : 0.940
REMARK   3   CORRELATION COEFFICIENT FO-FC FREE : 0.941
REMARK   3
REMARK   3  X-RAY WEIGHT : 6.04
REMARK   3
REMARK   3  GEOMETRY FUNCTION.                                                  
REMARK   3   RESTRAINT LIBRARIES.                                               
REMARK   3    NUMBER OF LIBRARIES USED :  10                                    
REMARK   3    LIBRARY  1 : protgeo_eh99.dat (V1.6.4.17) 20191001  STANDARD      
REMARK   3                 AMINO ACID DICTIONARY. BONDS AND ANGLES FROM         
REMARK   3                 ENGH AND HUBER EH99. OTHER VALUES BASED ON           
REMARK   3                 PREVIOUS TNT OR TAKEN FROM CCP4. INCLUDES            
REMARK   3                 HYDROGEN ATOMS.                                      
REMARK   3    LIBRARY  2 : exoticaa.dat (V1.3.4.15) 20200327  COLLECTION        
REMARK   3                 OF NON-STANDARD AMINO ACIDS, MAINLY EH91             
REMARK   3                 WITHOUT IDEAL DISTANCE INFO                          
REMARK   3    LIBRARY  3 : nuclgeo.dat (V1.13.4.8) 20190909                     
REMARK   3    LIBRARY  4 : bcorrel.dat (V1.15.10.2) 20190616                    
REMARK   3    LIBRARY  5 : contact.dat (V1.15.12.10) 20191121                   
REMARK   3    LIBRARY  6 : idealdist_contact.dat (V1.3.4.12) 20191001           
REMARK   3                 IDEAL-DISTANCE CONTACT TERM DATA AS USED IN          
REMARK   3                 PROLSQ. VALUES USED HERE ARE BASED ON DATA           
REMARK   3                 HARVESTING OF PDB AS OF 20190109.                    
REMARK   3    LIBRARY  7 : restraints for LIG from cif dictionary               
REMARK   3                 ASAP-0015216-001.cif                                 
REMARK   3    LIBRARY  8 : restraints for DMS (DIMETHYL SULFOXIDE) from         
REMARK   3                 cif dictionary DMS.cif; buster common-compounds      
REMARK   3                 v 2.0 (19 Dec 2011)                                  
REMARK   3    LIBRARY  9 : restraints for SO4 (SULFATE ION) from cif            
REMARK   3                 dictionary SO4.cif; buster common-compounds v        
REMARK   3                 2.0 (19 Dec 2011)                                    
REMARK   3    LIBRARY 10 : assume.dat (V1.9.4.2) 20180705                       
REMARK   3                                                                      
REMARK   3   NUMBER OF GEOMETRIC FUNCTION TERMS DEFINED : 15                    
REMARK   3   TERM                          COUNT    WEIGHT   FUNCTION.          
REMARK   3    BOND LENGTHS              :   1580 ;   2.00 ;  HARMONIC           
REMARK   3    BOND ANGLES               :   2154 ;   2.00 ;  HARMONIC           
REMARK   3    TORSION ANGLES            :    536 ;   2.00 ;  SINUSOIDAL         
REMARK   3    TRIGONAL CARBON PLANES    :   NULL ;   NULL ;  NULL               
REMARK   3    GENERAL PLANES            :    272 ;   5.00 ;  HARMONIC           
REMARK   3    ISOTROPIC THERMAL FACTORS :   1580 ;  10.00 ;  HARMONIC           
REMARK   3    BAD NON-BONDED CONTACTS   :   NULL ;   NULL ;  NULL               
REMARK   3    IMPROPER TORSIONS         :   NULL ;   NULL ;  NULL               
REMARK   3    PSEUDOROTATION ANGLES     :   NULL ;   NULL ;  NULL               
REMARK   3    CHIRAL IMPROPER TORSION   :    196 ;   5.00 ;  SEMIHARMONIC       
REMARK   3    SUM OF OCCUPANCIES        :   NULL ;   NULL ;  NULL               
REMARK   3    UTILITY DISTANCES         :   NULL ;   NULL ;  NULL               
REMARK   3    UTILITY ANGLES            :   NULL ;   NULL ;  NULL               
REMARK   3    UTILITY TORSION           :   NULL ;   NULL ;  NULL               
REMARK   3    IDEAL-DIST CONTACT TERM   :   1204 ;   4.00 ;  SEMIHARMONIC       
REMARK   3                                                                      
REMARK   3   RMS DEVIATIONS FROM IDEAL VALUES.                                  
REMARK   3   BOND LENGTHS                       (A) : 0.008                     
REMARK   3   BOND ANGLES                  (DEGREES) : 1.03                      
REMARK   3   PEPTIDE OMEGA TORSION ANGLES (DEGREES) : 3.44                      
REMARK   3   OTHER TORSION ANGLES         (DEGREES) : 16.98                     
REMARK   3                                                                      
REMARK   3   SIMILARITY.                                                        
REMARK   3    NCS.                                                              
REMARK   3     NCS METHOD: NONE                                                 
REMARK   3    TARGET RESTRAINTS.                                                
REMARK   3     TARGET REPRESENTATION : NONE                                     
REMARK   3     TARGET STRUCTURE : NULL                                          
REMARK   3                                                                      
REMARK   3  TLS DETAILS.                                                        
REMARK   3   NUMBER OF TLS GROUPS  :            2                               
REMARK   3                                                                      
REMARK   3   TLS GROUP :            1                                           
REMARK   3    SET : { A|* }                                                     
REMARK   3    ORIGIN FOR THE GROUP (A):  -13.7413   -1.9497  -19.5339           
REMARK   3    T TENSOR                                                          
REMARK   3     T11:    0.0154 T22:   -0.2879                                    
REMARK   3     T33:   -0.2462 T12:    0.1722                                    
REMARK   3     T13:    0.1683 T23:    0.1855                                    
REMARK   3    L TENSOR                                                          
REMARK   3     L11:    6.9595 L22:    5.0276                                    
REMARK   3     L33:    7.8304 L12:   -2.4359                                    
REMARK   3     L13:    0.6619 L23:    2.4448                                    
REMARK   3    S TENSOR                                                          
REMARK   3     S11:    0.5798 S12:    0.6638 S13:    0.3896                     
REMARK   3     S21:   -0.7030 S22:   -0.4349 S23:   -0.4261                     
REMARK   3     S31:   -0.2299 S32:    0.8045 S33:   -0.1449                     
REMARK   3                                                                      
REMARK   3   TLS GROUP :            2                                           
REMARK   3    SET : { B|* }                                                     
REMARK   3    ORIGIN FOR THE GROUP (A):  -18.3440    0.4743  -15.6734           
REMARK   3    T TENSOR                                                          
REMARK   3     T11:    0.1731 T22:    0.0754                                    
REMARK   3     T33:   -0.0903 T12:    0.2307                                    
REMARK   3     T13:    0.0345 T23:    0.0403                                    
REMARK   3    L TENSOR                                                          
REMARK   3     L11:    1.9089 L22:    1.2867                                    
REMARK   3     L33:    1.9365 L12:   -1.4058                                    
REMARK   3     L13:    1.0086 L23:   -0.1048                                    
REMARK   3    S TENSOR                                                          
REMARK   3     S11:    0.4160 S12:    0.2241 S13:    0.1826                     
REMARK   3     S21:   -0.2198 S22:   -0.4244 S23:    0.0593                     
REMARK   3     S31:    0.0699 S32:    0.1985 S33:    0.0084                     
REMARK   3                                                                      
REMARK   3  REFINEMENT NOTES.                                                   
REMARK   3   NUMBER OF REFINEMENT NOTES :   1                                   
REMARK   3   NOTE   1 : IDEAL-DIST CONTACT TERM CONTACT SETUP. ALL ATOMS        
REMARK   3               HAVE CCP4 ATOM TYPE FROM LIBRARY                       
REMARK   3
REMARK   3  OTHER REFINEMENT REMARKS: NULL
REMARK   3
REMARK 290                                                            
REMARK 290 CRYSTALLOGRAPHIC SYMMETRY                                  
REMARK 290 SYMMETRY OPERATORS FOR SPACE GROUP: P 43 2 2               
REMARK 290                                                            
REMARK 290      SYMOP   SYMMETRY                                      
REMARK 290     NNNMMM   OPERATOR                                      
REMARK 290       1555   X,Y,Z                                         
REMARK 290       2555   -X,-Y,1/2+Z                                   
REMARK 290       3555   -Y,X,3/4+Z                                    
REMARK 290       4555   Y,-X,1/4+Z                                    
REMARK 290       5555   -X,Y,-Z                                       
REMARK 290       6555   X,-Y,1/2-Z                                    
REMARK 290       7555   Y,X,1/4-Z                                     
REMARK 290       8555   -Y,-X,3/4-Z                                   
REMARK 290                                                            
REMARK 290     WHERE NNN -> OPERATOR NUMBER                           
REMARK 290           MMM -> TRANSLATION VECTOR                        
REMARK 290                                                            
REMARK 290 CRYSTALLOGRAPHIC SYMMETRY TRANSFORMATIONS                  
REMARK 290 THE FOLLOWING TRANSFORMATIONS OPERATE ON THE ATOM/HETATM   
REMARK 290 RECORDS IN THIS ENTRY TO PRODUCE CRYSTALLOGRAPHICALLY      
REMARK 290 RELATED MOLECULES.                                         
REMARK 290   SMTRY1   1  1.000000  0.000000  0.000000        0.00000
REMARK 290   SMTRY2   1  0.000000  1.000000  0.000000        0.00000
REMARK 290   SMTRY3   1  0.000000  0.000000  1.000000        0.00000
REMARK 290   SMTRY1   2 -1.000000  0.000000  0.000000        0.00000
REMARK 290   SMTRY2   2  0.000000 -1.000000  0.000000        0.00000
REMARK 290   SMTRY3   2  0.000000  0.000000  1.000000      108.26800
REMARK 290   SMTRY1   3  0.000000 -1.000000  0.000000        0.00000
REMARK 290   SMTRY2   3  1.000000  0.000000  0.000000        0.00000
REMARK 290   SMTRY3   3  0.000000  0.000000  1.000000      162.40200
REMARK 290   SMTRY1   4  0.000000  1.000000  0.000000        0.00000
REMARK 290   SMTRY2   4 -1.000000  0.000000  0.000000        0.00000
REMARK 290   SMTRY3   4  0.000000  0.000000  1.000000       54.13400
REMARK 290   SMTRY1   5 -1.000000  0.000000  0.000000        0.00000
REMARK 290   SMTRY2   5  0.000000  1.000000  0.000000        0.00000
REMARK 290   SMTRY3   5  0.000000  0.000000 -1.000000        0.00000
REMARK 290   SMTRY1   6  1.000000  0.000000  0.000000        0.00000
REMARK 290   SMTRY2   6  0.000000 -1.000000  0.000000        0.00000
REMARK 290   SMTRY3   6  0.000000  0.000000 -1.000000      108.26800
REMARK 290   SMTRY1   7  0.000000  1.000000  0.000000        0.00000
REMARK 290   SMTRY2   7  1.000000  0.000000  0.000000        0.00000
REMARK 290   SMTRY3   7  0.000000  0.000000 -1.000000       54.13400
REMARK 290   SMTRY1   8  0.000000 -1.000000  0.000000        0.00000
REMARK 290   SMTRY2   8 -1.000000  0.000000  0.000000        0.00000
REMARK 290   SMTRY3   8  0.000000  0.000000 -1.000000      162.40200
REMARK 290                                                            
REMARK 290 REMARK: NULL                                               
CRYST1   42.584   42.584  216.536  90.00  90.00  90.00 P 43 2 2                 


$$$$
Zx2217a_ligand
  PyMOL3.0          3D                             0

 24 26  0  0  0  0  0  0  0  0999 V2000
   -2.6210    6.7960  -20.1920 C   0  0  0  0  0  0  0  0  0  0  0  0
   -4.7030    5.5120  -20.5280 N   0  0  0  0  0  0  0  0  0  0  0  0
   -7.0250    5.7710  -13.3970 O   0  0  0  0  0  0  0  0  0  0  0  0
   -3.2330    5.4810  -20.6390 C   0  0  0  0  0  0  0  0  0  0  0  0
   -6.7410    4.8960  -19.5660 N   0  0  0  0  0  0  0  0  0  0  0  0
   -9.1420    3.6070   -7.5160 O   0  0  0  0  0  0  0  0  0  0  0  0
   -2.6360    4.2900  -19.9110 C   0  0  0  0  0  0  0  0  0  0  0  0
   -8.6170    4.1680  -13.3840 N   0  0  0  0  0  0  0  0  0  0  0  0
   -5.4710    5.2410  -19.4510 C   0  0  0  0  0  0  0  0  0  0  0  0
   -8.6700    4.8590   -9.8890 N   0  0  0  0  0  0  0  0  0  0  0  0
   -7.2030    4.8450  -18.2490 C   0  0  0  0  0  0  0  0  0  0  0  0
   -9.3740    1.6020   -8.5050 N   0  0  0  0  0  0  0  0  0  0  0  0
   -8.4560    4.4950  -17.7470 C   0  0  0  0  0  0  0  0  0  0  0  0
   -5.0950    5.5110  -18.1720 N   0  0  0  0  0  0  0  0  0  0  0  0
   -8.6270    4.4830  -16.3820 C   0  0  0  0  0  0  0  0  0  0  0  0
   -7.6120    4.8930  -15.5040 C   0  0  0  0  0  0  0  0  0  0  0  0
   -7.7450    5.0040  -14.0150 C   0  0  0  0  0  0  0  0  0  0  0  0
   -8.7390    4.1520  -11.9810 C   0  0  0  0  0  0  0  0  0  0  0  0
   -8.5200    5.2400  -11.1730 C   0  0  0  0  0  0  0  0  0  0  0  0
   -8.9490    3.5190   -9.8480 C   0  0  0  0  0  0  0  0  0  0  0  0
   -9.1580    2.9080   -8.5370 C   0  0  0  0  0  0  0  0  0  0  0  0
   -8.9960    3.0540  -11.1440 C   0  0  0  0  0  0  0  0  0  0  0  0
   -6.3760    5.2560  -16.0040 C   0  0  0  0  0  0  0  0  0  0  0  0
   -6.1840    5.2250  -17.3710 C   0  0  0  0  0  0  0  0  0  0  0  0
  1  4  1  0  0  0  0
  2  9  1  0  0  0  0
  2  4  1  0  0  0  0
  4  7  1  0  0  0  0
  5 11  4  0  0  0  0
  8 18  1  0  0  0  0
  5  9  4  0  0  0  0
  9 14  4  0  0  0  0
 10 20  4  0  0  0  0
 11 13  4  0  0  0  0
 11 24  4  0  0  0  0
 13 15  4  0  0  0  0
 15 16  4  0  0  0  0
 16 17  1  0  0  0  0
 16 23  4  0  0  0  0
  3 17  2  0  0  0  0
  8 17  1  0  0  0  0
 18 19  4  0  0  0  0
 18 22  4  0  0  0  0
 10 19  4  0  0  0  0
 20 21  1  0  0  0  0
 20 22  4  0  0  0  0
  6 21  2  0  0  0  0
 12 21  1  0  0  0  0
 23 24  4  0  0  0  0
 14 24  4  0  0  0  0
M  END
>  <pdb_header>
COMPND    XX01ZVNS2B-x2217_B_301_XX01ZVNS2B-x1291+B+301+1


$$$$
Zx2235a
  PyMOL3.0          3D                             0

 22 24  0  0  0  0  0  0  0  0999 V2000
   -2.5590    4.5620  -19.7950 C   0  0  0  0  0  0  0  0  0  0  0  0
   -4.6980    5.6600  -20.2900 N   0  0  0  0  0  0  0  0  0  0  0  0
   -7.1020    5.7500  -13.1170 O   0  0  0  0  0  0  0  0  0  0  0  0
   -3.2430    5.8570  -20.2020 C   0  0  0  0  0  0  0  0  0  0  0  0
   -6.7440    5.0320  -19.3400 N   0  0  0  0  0  0  0  0  0  0  0  0
   -2.7130    6.3800  -21.5230 C   0  0  0  0  0  0  0  0  0  0  0  0
   -8.6350    4.0820  -13.2580 N   0  0  0  0  0  0  0  0  0  0  0  0
   -5.4890    5.4220  -19.2240 C   0  0  0  0  0  0  0  0  0  0  0  0
   -9.4880    2.8080   -9.9820 N   0  0  0  0  0  0  0  0  0  0  0  0
   -7.1990    4.9530  -18.0240 C   0  0  0  0  0  0  0  0  0  0  0  0
   -8.8110    3.9620   -9.6890 N   0  0  0  0  0  0  0  0  0  0  0  0
   -8.4410    4.5630  -17.5270 C   0  0  0  0  0  0  0  0  0  0  0  0
   -5.1070    5.6710  -17.9430 N   0  0  0  0  0  0  0  0  0  0  0  0
   -8.6150    4.5360  -16.1640 C   0  0  0  0  0  0  0  0  0  0  0  0
   -7.6070    4.9580  -15.2840 C   0  0  0  0  0  0  0  0  0  0  0  0
   -7.7730    4.9890  -13.7970 C   0  0  0  0  0  0  0  0  0  0  0  0
   -8.8140    3.8380  -11.8840 C   0  0  0  0  0  0  0  0  0  0  0  0
   -9.5020    2.7610  -11.3060 C   0  0  0  0  0  0  0  0  0  0  0  0
   -8.6260    4.3540   -8.2950 C   0  0  0  0  0  0  0  0  0  0  0  0
   -8.4020    4.6130  -10.8060 C   0  0  0  0  0  0  0  0  0  0  0  0
   -6.3720    5.3350  -15.7770 C   0  0  0  0  0  0  0  0  0  0  0  0
   -6.1820    5.3320  -17.1440 C   0  0  0  0  0  0  0  0  0  0  0  0
  1  4  1  0  0  0  0
  2  8  1  0  0  0  0
  2  4  1  0  0  0  0
  4  6  1  0  0  0  0
  5 10  4  0  0  0  0
  7 17  1  0  0  0  0
  5  8  4  0  0  0  0
  8 13  4  0  0  0  0
  9 11  4  0  0  0  0
 10 12  4  0  0  0  0
 10 22  4  0  0  0  0
 11 19  1  0  0  0  0
 11 20  4  0  0  0  0
 12 14  4  0  0  0  0
 14 15  4  0  0  0  0
 15 16  1  0  0  0  0
 15 21  4  0  0  0  0
  3 16  2  0  0  0  0
  7 16  1  0  0  0  0
 17 18  4  0  0  0  0
 17 20  4  0  0  0  0
  9 18  4  0  0  0  0
 21 22  4  0  0  0  0
 13 22  4  0  0  0  0
M  END
>  <pdb_header>
HEADER    ----                                    23-FEB-23                     
TITLE     ---                                                                   
EXPDTA    X-RAY DIFFRACTION                                                     
REMARK --------------------- added by autoBUSTER ---------------------------------START
REMARK run at   = Wed Dec 20 17:56:01 GMT 2023
REMARK     in   = /dls/labxchem/data/lb32627/lb32627-65/processing/analysis/model_building/XX01ZVNS2B-x2235
REMARK     user = kyf22269
REMARK     cmd  = \
REMARK            /dls_sw/apps/GPhL/BUSTER/20211020/autoBUSTER/bin/linux64/refine \
REMARK            -p \
REMARK            /dls/labxchem/data/lb32627/lb32627-65/processing/analysis/model_building/XX01ZVNS2B-x2235/cootOut/Refi
REMARK            -m \
REMARK            /dls/labxchem/data/lb32627/lb32627-65/processing/analysis/model_building/XX01ZVNS2B-x2235/XX01ZVNS2B-x
REMARK            -l \
REMARK            /dls/labxchem/data/lb32627/lb32627-65/processing/analysis/model_building/XX01ZVNS2B-x2235/ASAP-0015259
REMARK            -autoncs -M TLSbasic -d Refine_3
REMARK Files used:
REMARK   PDB              = Refine_3/pdbchk.pdb
REMARK   MTZ              = /dls/labxchem/data/lb32627/lb32627-65/processing/analysis/model_building/XX01ZVNS2B-x2235/XX
REMARK output written to subdirectory = Refine_3
REMARK best refinement for F,SIGF with R/Rfree 0.2489/0.2805
REMARK header records are copied from input PDB file (apart from REMARK 3!)
REMARK --------------------- added by autoBUSTER -----------------------------------END
REMARK --------------------- added by autoBUSTER -------------------------------
REMARK run at   = Tue Dec 19 18:14:02 GMT 2023                                  
REMARK     in   = /dls/labxchem/data/lb32627/lb32627-65/processing/analysis/mode
REMARK     user = kyf22269                                                      
REMARK     cmd  = \                                                             
REMARK            /dls_sw/apps/GPhL/BUSTER/20211020/autoBUSTER/bin/linux64/refin
REMARK            -p \                                                          
REMARK            /dls/labxchem/data/lb32627/lb32627-65/processing/analysis/mode
REMARK            -m \                                                          
REMARK            /dls/labxchem/data/lb32627/lb32627-65/processing/analysis/mode
REMARK            -l \                                                          
REMARK            /dls/labxchem/data/lb32627/lb32627-65/processing/analysis/mode
REMARK            -autoncs -M TLSbasic -d Refine_2                              
REMARK Files used:                                                              
REMARK   PDB              = Refine_2/pdbchk.pdb                                 
REMARK   MTZ              = /dls/labxchem/data/lb32627/lb32627-65/processing/ana
REMARK output written to subdirectory = Refine_2                                
REMARK best refinement for F,SIGF with R/Rfree 0.2478/0.2845                    
REMARK header records are copied from input PDB file (apart from REMARK 3!)     
REMARK --------------------- added by autoBUSTER -------------------------------
REMARK --------------------- added by autoBUSTER -------------------------------
REMARK run at   = Mon Dec 18 15:19:09 GMT 2023                                  
REMARK     in   = /dls/labxchem/data/lb32627/lb32627-65/processing/analysis/mode
REMARK     user = kyf22269                                                      
REMARK     cmd  = \                                                             
REMARK            /dls_sw/apps/GPhL/BUSTER/20211020/autoBUSTER/bin/linux64/refin
REMARK            -p \                                                          
REMARK            /dls/labxchem/data/lb32627/lb32627-65/processing/analysis/mode
REMARK            -m \                                                          
REMARK            /dls/labxchem/data/lb32627/lb32627-65/processing/analysis/mode
REMARK            -l \                                                          
REMARK            /dls/labxchem/data/lb32627/lb32627-65/processing/analysis/mode
REMARK            -autoncs -M TLSbasic StopOnGellySanityCheckError=no -d \      
REMARK            Refine_1                                                      
REMARK Files used:                                                              
REMARK   PDB              = Refine_1/pdbchk.pdb                                 
REMARK   MTZ              = /dls/labxchem/data/lb32627/lb32627-65/processing/ana
REMARK output written to subdirectory = Refine_1                                
REMARK best refinement for F,SIGF with R/Rfree 0.2463/0.2901                    
REMARK header records are copied from input PDB file (apart from REMARK 3!)     
REMARK --------------------- added by autoBUSTER -------------------------------
REMARK   2                                                            
REMARK   2 RESOLUTION.    2.02 ANGSTROMS.
REMARK   3
REMARK   3 REFINEMENT.
REMARK   3   PROGRAM     : BUSTER 2.10.4 (20-OCT-2021)
REMARK   3   AUTHORS     : BRICOGNE,BLANC,BRANDL,FLENSBURG,KELLER,
REMARK   3               : PACIOREK,ROVERSI,SHARFF,SMART,VONRHEIN,WOMACK;
REMARK   3               : MATTHEWS,TEN EYCK,TRONRUD
REMARK   3
REMARK   3  DATA USED IN REFINEMENT.
REMARK   3   RESOLUTION RANGE HIGH (ANGSTROMS) : 2.020
REMARK   3   RESOLUTION RANGE LOW  (ANGSTROMS) : 42.72
REMARK   3   DATA CUTOFF            (SIGMA(F)) : 0.000
REMARK   3   COMPLETENESS FOR RANGE        (%) : 98.8
REMARK   3   NUMBER OF REFLECTIONS             : 13974
REMARK   3
REMARK   3  FIT TO DATA USED IN REFINEMENT.
REMARK   3   CROSS-VALIDATION METHOD          : THROUGHOUT
REMARK   3   FREE R VALUE TEST SET SELECTION  : RANDOM
REMARK   3   R VALUE     (WORKING + TEST SET) : 0.2505
REMARK   3   R VALUE            (WORKING SET) : 0.2489
REMARK   3   FREE R VALUE                     : 0.2805
REMARK   3   FREE R VALUE TEST SET SIZE   (%) : 4.760
REMARK   3   FREE R VALUE TEST SET COUNT      : 665
REMARK   3   ESTIMATED ERROR OF FREE R VALUE  : NULL
REMARK   3
REMARK   3  FIT IN THE HIGHEST RESOLUTION BIN.
REMARK   3   TOTAL NUMBER OF BINS USED           : 34
REMARK   3   BIN RESOLUTION RANGE HIGH       (A) : 2.02
REMARK   3   BIN RESOLUTION RANGE LOW        (A) : 2.05
REMARK   3   BIN COMPLETENESS (WORKING+TEST) (%) : 75.72
REMARK   3   REFLECTIONS IN BIN   (WORKING+TEST) : 424
REMARK   3   BIN R VALUE          (WORKING+TEST) : 0.5376
REMARK   3   REFLECTIONS IN BIN    (WORKING SET) : 406
REMARK   3   BIN R VALUE           (WORKING SET) : 0.5338
REMARK   3   BIN FREE R VALUE                    : 0.6282
REMARK   3   BIN FREE R VALUE TEST SET SIZE  (%) : 4.25
REMARK   3   BIN FREE R VALUE TEST SET COUNT     : 18
REMARK   3   ESTIMATED ERROR OF BIN FREE R VALUE : NULL
REMARK   3
REMARK   3  NUMBER OF NON-HYDROGEN ATOMS USED IN REFINEMENT.
REMARK   3   PROTEIN ATOMS            : 1476
REMARK   3   NUCLEIC ACID ATOMS       : 0
REMARK   3   HETEROGEN ATOMS          : 26
REMARK   3   SOLVENT ATOMS            : 49
REMARK   3
REMARK   3  B VALUES.
REMARK   3   FROM WILSON PLOT           (A**2) : 53.81
REMARK   3   MEAN B VALUE      (OVERALL, A**2) : 77.75
REMARK   3   OVERALL ANISOTROPIC B VALUE.
REMARK   3    B11 (A**2) : -9.00300
REMARK   3    B22 (A**2) : -9.00300
REMARK   3    B33 (A**2) : 18.00600
REMARK   3    B12 (A**2) : 0.00000
REMARK   3    B13 (A**2) : 0.00000
REMARK   3    B23 (A**2) : 0.00000
REMARK   3
REMARK   3  ESTIMATED COORDINATE ERROR.
REMARK   3   ESD FROM LUZZATI PLOT                    (A) : 0.41
REMARK   3   DPI (BLOW EQ-10) BASED ON R VALUE        (A) : 0.245
REMARK   3   DPI (BLOW EQ-9) BASED ON FREE R VALUE    (A) : 0.196
REMARK   3   DPI (CRUICKSHANK) BASED ON R VALUE       (A) : 0.229
REMARK   3   DPI (CRUICKSHANK) BASED ON FREE R VALUE  (A) : 0.191
REMARK   3
REMARK   3   REFERENCES: BLOW, D. (2002) ACTA CRYST D58, 792-797
REMARK   3               CRUICKSHANK, D.W.J. (1999) ACTA CRYST D55, 583-601
REMARK   3
REMARK   3  CORRELATION COEFFICIENTS.
REMARK   3   CORRELATION COEFFICIENT FO-FC      : 0.933
REMARK   3   CORRELATION COEFFICIENT FO-FC FREE : 0.920
REMARK   3
REMARK   3  X-RAY WEIGHT : 8.24
REMARK   3
REMARK   3  GEOMETRY FUNCTION.                                                  
REMARK   3   RESTRAINT LIBRARIES.                                               
REMARK   3    NUMBER OF LIBRARIES USED :   9                                    
REMARK   3    LIBRARY  1 : protgeo_eh99.dat (V1.6.4.17) 20191001  STANDARD      
REMARK   3                 AMINO ACID DICTIONARY. BONDS AND ANGLES FROM         
REMARK   3                 ENGH AND HUBER EH99. OTHER VALUES BASED ON           
REMARK   3                 PREVIOUS TNT OR TAKEN FROM CCP4. INCLUDES            
REMARK   3                 HYDROGEN ATOMS.                                      
REMARK   3    LIBRARY  2 : exoticaa.dat (V1.3.4.15) 20200327  COLLECTION        
REMARK   3                 OF NON-STANDARD AMINO ACIDS, MAINLY EH91             
REMARK   3                 WITHOUT IDEAL DISTANCE INFO                          
REMARK   3    LIBRARY  3 : nuclgeo.dat (V1.13.4.8) 20190909                     
REMARK   3    LIBRARY  4 : bcorrel.dat (V1.15.10.2) 20190616                    
REMARK   3    LIBRARY  5 : contact.dat (V1.15.12.10) 20191121                   
REMARK   3    LIBRARY  6 : idealdist_contact.dat (V1.3.4.12) 20191001           
REMARK   3                 IDEAL-DISTANCE CONTACT TERM DATA AS USED IN          
REMARK   3                 PROLSQ. VALUES USED HERE ARE BASED ON DATA           
REMARK   3                 HARVESTING OF PDB AS OF 20190109.                    
REMARK   3    LIBRARY  7 : restraints for LIG from cif dictionary               
REMARK   3                 ASAP-0015259-001.cif                                 
REMARK   3    LIBRARY  8 : restraints for DMS (DIMETHYL SULFOXIDE) from         
REMARK   3                 cif dictionary DMS.cif; buster common-compounds      
REMARK   3                 v 2.0 (19 Dec 2011)                                  
REMARK   3    LIBRARY  9 : assume.dat (V1.9.4.2) 20180705                       
REMARK   3                                                                      
REMARK   3   NUMBER OF GEOMETRIC FUNCTION TERMS DEFINED : 15                    
REMARK   3   TERM                          COUNT    WEIGHT   FUNCTION.          
REMARK   3    BOND LENGTHS              :   1570 ;   2.00 ;  HARMONIC           
REMARK   3    BOND ANGLES               :   2139 ;   2.00 ;  HARMONIC           
REMARK   3    TORSION ANGLES            :    535 ;   2.00 ;  SINUSOIDAL         
REMARK   3    TRIGONAL CARBON PLANES    :   NULL ;   NULL ;  NULL               
REMARK   3    GENERAL PLANES            :    271 ;   5.00 ;  HARMONIC           
REMARK   3    ISOTROPIC THERMAL FACTORS :   1570 ;  10.00 ;  HARMONIC           
REMARK   3    BAD NON-BONDED CONTACTS   :   NULL ;   NULL ;  NULL               
REMARK   3    IMPROPER TORSIONS         :   NULL ;   NULL ;  NULL               
REMARK   3    PSEUDOROTATION ANGLES     :   NULL ;   NULL ;  NULL               
REMARK   3    CHIRAL IMPROPER TORSION   :    196 ;   5.00 ;  SEMIHARMONIC       
REMARK   3    SUM OF OCCUPANCIES        :   NULL ;   NULL ;  NULL               
REMARK   3    UTILITY DISTANCES         :   NULL ;   NULL ;  NULL               
REMARK   3    UTILITY ANGLES            :   NULL ;   NULL ;  NULL               
REMARK   3    UTILITY TORSION           :   NULL ;   NULL ;  NULL               
REMARK   3    IDEAL-DIST CONTACT TERM   :   1137 ;   4.00 ;  SEMIHARMONIC       
REMARK   3                                                                      
REMARK   3   RMS DEVIATIONS FROM IDEAL VALUES.                                  
REMARK   3   BOND LENGTHS                       (A) : 0.008                     
REMARK   3   BOND ANGLES                  (DEGREES) : 1.03                      
REMARK   3   PEPTIDE OMEGA TORSION ANGLES (DEGREES) : 3.14                      
REMARK   3   OTHER TORSION ANGLES         (DEGREES) : 16.31                     
REMARK   3                                                                      
REMARK   3   SIMILARITY.                                                        
REMARK   3    NCS.                                                              
REMARK   3     NCS METHOD: NONE                                                 
REMARK   3    TARGET RESTRAINTS.                                                
REMARK   3     TARGET REPRESENTATION : NONE                                     
REMARK   3     TARGET STRUCTURE : NULL                                          
REMARK   3                                                                      
REMARK   3  TLS DETAILS.                                                        
REMARK   3   NUMBER OF TLS GROUPS  :            2                               
REMARK   3                                                                      
REMARK   3   TLS GROUP :            1                                           
REMARK   3    SET : { A|* }                                                     
REMARK   3    ORIGIN FOR THE GROUP (A):  -13.8710   -2.0236  -19.5194           
REMARK   3    T TENSOR                                                          
REMARK   3     T11:    0.0188 T22:   -0.1403                                    
REMARK   3     T33:   -0.3602 T12:    0.3019                                    
REMARK   3     T13:    0.1381 T23:    0.1418                                    
REMARK   3    L TENSOR                                                          
REMARK   3     L11:    5.9830 L22:    5.5629                                    
REMARK   3     L33:    6.0526 L12:   -2.1220                                    
REMARK   3     L13:    1.0701 L23:    1.3741                                    
REMARK   3    S TENSOR                                                          
REMARK   3     S11:    0.6093 S12:    0.6927 S13:    0.1500                     
REMARK   3     S21:   -0.7009 S22:   -0.4792 S23:   -0.4557                     
REMARK   3     S31:   -0.1911 S32:    0.5566 S33:   -0.1301                     
REMARK   3                                                                      
REMARK   3   TLS GROUP :            2                                           
REMARK   3    SET : { B|* }                                                     
REMARK   3    ORIGIN FOR THE GROUP (A):  -18.5256    0.4687  -15.6956           
REMARK   3    T TENSOR                                                          
REMARK   3     T11:    0.1904 T22:    0.0323                                    
REMARK   3     T33:   -0.1529 T12:    0.2841                                    
REMARK   3     T13:    0.0170 T23:    0.0250                                    
REMARK   3    L TENSOR                                                          
REMARK   3     L11:    1.9376 L22:    1.7023                                    
REMARK   3     L33:    2.6844 L12:   -1.4203                                    
REMARK   3     L13:    1.0305 L23:   -0.3106                                    
REMARK   3    S TENSOR                                                          
REMARK   3     S11:    0.4904 S12:    0.2066 S13:    0.1749                     
REMARK   3     S21:   -0.2361 S22:   -0.4612 S23:    0.0374                     
REMARK   3     S31:    0.0701 S32:    0.2142 S33:   -0.0293                     
REMARK   3                                                                      
REMARK   3  REFINEMENT NOTES.                                                   
REMARK   3   NUMBER OF REFINEMENT NOTES :   1                                   
REMARK   3   NOTE   1 : IDEAL-DIST CONTACT TERM CONTACT SETUP. ALL ATOMS        
REMARK   3               HAVE CCP4 ATOM TYPE FROM LIBRARY                       
REMARK   3
REMARK   3  OTHER REFINEMENT REMARKS: NULL
REMARK   3
REMARK 290                                                            
REMARK 290 CRYSTALLOGRAPHIC SYMMETRY                                  
REMARK 290 SYMMETRY OPERATORS FOR SPACE GROUP: P 43 2 2               
REMARK 290                                                            
REMARK 290      SYMOP   SYMMETRY                                      
REMARK 290     NNNMMM   OPERATOR                                      
REMARK 290       1555   X,Y,Z                                         
REMARK 290       2555   -X,-Y,1/2+Z                                   
REMARK 290       3555   -Y,X,3/4+Z                                    
REMARK 290       4555   Y,-X,1/4+Z                                    
REMARK 290       5555   -X,Y,-Z                                       
REMARK 290       6555   X,-Y,1/2-Z                                    
REMARK 290       7555   Y,X,1/4-Z                                     
REMARK 290       8555   -Y,-X,3/4-Z                                   
REMARK 290                                                            
REMARK 290     WHERE NNN -> OPERATOR NUMBER                           
REMARK 290           MMM -> TRANSLATION VECTOR                        
REMARK 290                                                            
REMARK 290 CRYSTALLOGRAPHIC SYMMETRY TRANSFORMATIONS                  
REMARK 290 THE FOLLOWING TRANSFORMATIONS OPERATE ON THE ATOM/HETATM   
REMARK 290 RECORDS IN THIS ENTRY TO PRODUCE CRYSTALLOGRAPHICALLY      
REMARK 290 RELATED MOLECULES.                                         
REMARK 290   SMTRY1   1  1.000000  0.000000  0.000000        0.00000
REMARK 290   SMTRY2   1  0.000000  1.000000  0.000000        0.00000
REMARK 290   SMTRY3   1  0.000000  0.000000  1.000000        0.00000
REMARK 290   SMTRY1   2 -1.000000  0.000000  0.000000        0.00000
REMARK 290   SMTRY2   2  0.000000 -1.000000  0.000000        0.00000
REMARK 290   SMTRY3   2  0.000000  0.000000  1.000000      108.44500
REMARK 290   SMTRY1   3  0.000000 -1.000000  0.000000        0.00000
REMARK 290   SMTRY2   3  1.000000  0.000000  0.000000        0.00000
REMARK 290   SMTRY3   3  0.000000  0.000000  1.000000      162.66750
REMARK 290   SMTRY1   4  0.000000  1.000000  0.000000        0.00000
REMARK 290   SMTRY2   4 -1.000000  0.000000  0.000000        0.00000
REMARK 290   SMTRY3   4  0.000000  0.000000  1.000000       54.22250
REMARK 290   SMTRY1   5 -1.000000  0.000000  0.000000        0.00000
REMARK 290   SMTRY2   5  0.000000  1.000000  0.000000        0.00000
REMARK 290   SMTRY3   5  0.000000  0.000000 -1.000000        0.00000
REMARK 290   SMTRY1   6  1.000000  0.000000  0.000000        0.00000
REMARK 290   SMTRY2   6  0.000000 -1.000000  0.000000        0.00000
REMARK 290   SMTRY3   6  0.000000  0.000000 -1.000000      108.44500
REMARK 290   SMTRY1   7  0.000000  1.000000  0.000000        0.00000
REMARK 290   SMTRY2   7  1.000000  0.000000  0.000000        0.00000
REMARK 290   SMTRY3   7  0.000000  0.000000 -1.000000       54.22250
REMARK 290   SMTRY1   8  0.000000 -1.000000  0.000000        0.00000
REMARK 290   SMTRY2   8 -1.000000  0.000000  0.000000        0.00000
REMARK 290   SMTRY3   8  0.000000  0.000000 -1.000000      162.66750
REMARK 290                                                            
REMARK 290 REMARK: NULL                                               
CRYST1   42.720   42.720  216.890  90.00  90.00  90.00 P 43 2 2                 


$$$$
Zx2235a_ligand
  PyMOL3.0          3D                             0

 22 24  0  0  0  0  0  0  0  0999 V2000
   -2.5590    4.5620  -19.7950 C   0  0  0  0  0  0  0  0  0  0  0  0
   -4.6980    5.6600  -20.2900 N   0  0  0  0  0  0  0  0  0  0  0  0
   -7.1020    5.7500  -13.1170 O   0  0  0  0  0  0  0  0  0  0  0  0
   -3.2430    5.8570  -20.2020 C   0  0  0  0  0  0  0  0  0  0  0  0
   -6.7440    5.0320  -19.3400 N   0  0  0  0  0  0  0  0  0  0  0  0
   -2.7130    6.3800  -21.5230 C   0  0  0  0  0  0  0  0  0  0  0  0
   -8.6350    4.0820  -13.2580 N   0  0  0  0  0  0  0  0  0  0  0  0
   -5.4890    5.4220  -19.2240 C   0  0  0  0  0  0  0  0  0  0  0  0
   -9.4880    2.8080   -9.9820 N   0  0  0  0  0  0  0  0  0  0  0  0
   -7.1990    4.9530  -18.0240 C   0  0  0  0  0  0  0  0  0  0  0  0
   -8.8110    3.9620   -9.6890 N   0  0  0  0  0  0  0  0  0  0  0  0
   -8.4410    4.5630  -17.5270 C   0  0  0  0  0  0  0  0  0  0  0  0
   -5.1070    5.6710  -17.9430 N   0  0  0  0  0  0  0  0  0  0  0  0
   -8.6150    4.5360  -16.1640 C   0  0  0  0  0  0  0  0  0  0  0  0
   -7.6070    4.9580  -15.2840 C   0  0  0  0  0  0  0  0  0  0  0  0
   -7.7730    4.9890  -13.7970 C   0  0  0  0  0  0  0  0  0  0  0  0
   -8.8140    3.8380  -11.8840 C   0  0  0  0  0  0  0  0  0  0  0  0
   -9.5020    2.7610  -11.3060 C   0  0  0  0  0  0  0  0  0  0  0  0
   -8.6260    4.3540   -8.2950 C   0  0  0  0  0  0  0  0  0  0  0  0
   -8.4020    4.6130  -10.8060 C   0  0  0  0  0  0  0  0  0  0  0  0
   -6.3720    5.3350  -15.7770 C   0  0  0  0  0  0  0  0  0  0  0  0
   -6.1820    5.3320  -17.1440 C   0  0  0  0  0  0  0  0  0  0  0  0
  1  4  1  0  0  0  0
  2  8  1  0  0  0  0
  2  4  1  0  0  0  0
  4  6  1  0  0  0  0
  5 10  4  0  0  0  0
  7 17  1  0  0  0  0
  5  8  4  0  0  0  0
  8 13  4  0  0  0  0
  9 11  4  0  0  0  0
 10 12  4  0  0  0  0
 10 22  4  0  0  0  0
 11 19  1  0  0  0  0
 11 20  4  0  0  0  0
 12 14  4  0  0  0  0
 14 15  4  0  0  0  0
 15 16  1  0  0  0  0
 15 21  4  0  0  0  0
  3 16  2  0  0  0  0
  7 16  1  0  0  0  0
 17 18  4  0  0  0  0
 17 20  4  0  0  0  0
  9 18  4  0  0  0  0
 21 22  4  0  0  0  0
 13 22  4  0  0  0  0
M  END
>  <pdb_header>
COMPND    XX01ZVNS2B-x2235_B_301_XX01ZVNS2B-x1291+B+301+1


$$$$
Zx2262a
  PyMOL3.0          3D                             0

 21 23  0  0  0  0  0  0  0  0999 V2000
   -8.7390    7.8400  -11.9460 C   0  0  0  0  0  0  0  0  0  0  0  0
   -8.5890    5.8040  -10.6040 N   0  0  0  0  0  0  0  0  0  0  0  0
   -7.9870    6.5060  -14.7560 O   0  0  0  0  0  0  0  0  0  0  0  0
   -8.6090    6.3610  -11.8150 C   0  0  0  0  0  0  0  0  0  0  0  0
   -7.7850    1.2570   -8.8690 N   0  0  0  0  0  0  0  0  0  0  0  0
   -8.4840    4.4710  -10.7610 C   0  0  0  0  0  0  0  0  0  0  0  0
   -8.4400    4.1760  -12.1050 N   0  0  0  0  0  0  0  0  0  0  0  0
   -8.4200    3.5700   -9.5660 C   0  0  0  0  0  0  0  0  0  0  0  0
   -9.1420    4.5560  -14.9400 N   0  0  0  0  0  0  0  0  0  0  0  0
   -9.7830    3.0730   -9.1200 C   0  0  0  0  0  0  0  0  0  0  0  0
   -8.2290    4.9830  -17.0180 N   0  0  0  0  0  0  0  0  0  0  0  0
   -9.7160    2.3740   -7.7620 C   0  0  0  0  0  0  0  0  0  0  0  0
   -8.3870    1.6620   -7.5870 C   0  0  0  0  0  0  0  0  0  0  0  0
   -7.4630    2.4010   -9.7530 C   0  0  0  0  0  0  0  0  0  0  0  0
   -8.4940    5.3750  -12.7780 C   0  0  0  0  0  0  0  0  0  0  0  0
   -8.4900    5.5170  -14.2390 C   0  0  0  0  0  0  0  0  0  0  0  0
   -9.2610    4.4740  -16.3360 C   0  0  0  0  0  0  0  0  0  0  0  0
  -10.3420    3.8600  -16.9660 C   0  0  0  0  0  0  0  0  0  0  0  0
  -10.3750    3.8440  -18.3400 C   0  0  0  0  0  0  0  0  0  0  0  0
   -9.3210    4.3620  -19.0540 C   0  0  0  0  0  0  0  0  0  0  0  0
   -8.2870    4.9310  -18.3590 C   0  0  0  0  0  0  0  0  0  0  0  0
  1  4  1  0  0  0  0
  2  6  4  0  0  0  0
  2  4  4  0  0  0  0
  4 15  4  0  0  0  0
  5 14  1  0  0  0  0
  6  7  4  0  0  0  0
  6  8  1  0  0  0  0
  7 15  4  0  0  0  0
  8 10  1  0  0  0  0
  8 14  1  0  0  0  0
  9 17  1  0  0  0  0
 10 12  1  0  0  0  0
 12 13  1  0  0  0  0
  5 13  1  0  0  0  0
 15 16  1  0  0  0  0
  3 16  2  0  0  0  0
  9 16  1  0  0  0  0
 11 17  4  0  0  0  0
 17 18  4  0  0  0  0
 18 19  4  0  0  0  0
 19 20  4  0  0  0  0
 20 21  4  0  0  0  0
 11 21  4  0  0  0  0
M  END
>  <pdb_header>
HEADER    ----                                    23-FEB-23                     
TITLE     ---                                                                   
EXPDTA    X-RAY DIFFRACTION                                                     
REMARK --------------------- added by autoBUSTER ---------------------------------START
REMARK run at   = Fri Jan 19 13:14:21 GMT 2024
REMARK     in   = /dls/labxchem/data/lb32627/lb32627-65/processing/analysis/model_building/XX01ZVNS2B-x2262
REMARK     user = xau79897
REMARK     cmd  = \
REMARK            /dls_sw/apps/GPhL/BUSTER/20230726/autoBUSTER/bin/linux64/refine \
REMARK            -p \
REMARK            /dls/labxchem/data/lb32627/lb32627-65/processing/analysis/model_building/XX01ZVNS2B-x2262/cootOut/Refi
REMARK            -m \
REMARK            /dls/labxchem/data/lb32627/lb32627-65/processing/analysis/model_building/XX01ZVNS2B-x2262/XX01ZVNS2B-x
REMARK            -l \
REMARK            /dls/labxchem/data/lb32627/lb32627-65/processing/analysis/model_building/XX01ZVNS2B-x2262/ASAP-0015286
REMARK            -autoncs -M TLSbasic -B user -Gelly gelly.dat \
REMARK            StopOnGellySanityCheckError=no -d Refine_4
REMARK Files used:
REMARK   PDB              = Refine_4/pdbchk.pdb
REMARK   MTZ              = /dls/labxchem/data/lb32627/lb32627-65/processing/analysis/model_building/XX01ZVNS2B-x2262/XX
REMARK   Gelly commands       = /dls/labxchem/data/lb32627/lb32627-65/processing/analysis/model_building/XX01ZVNS2B-x226
REMARK output written to subdirectory = Refine_4
REMARK best refinement for F,SIGF with R/Rfree 0.2607/0.3248
REMARK header records are copied from input PDB file (apart from REMARK 3!)
REMARK --------------------- added by autoBUSTER -----------------------------------END
REMARK --------------------- added by autoBUSTER -------------------------------
REMARK run at   = Thu Dec 21 15:02:43 GMT 2023                                  
REMARK     in   = /dls/labxchem/data/lb32627/lb32627-65/processing/analysis/mode
REMARK     user = kyf22269                                                      
REMARK     cmd  = \                                                             
REMARK            /dls_sw/apps/GPhL/BUSTER/20211020/autoBUSTER/bin/linux64/refin
REMARK            -p \                                                          
REMARK            /dls/labxchem/data/lb32627/lb32627-65/processing/analysis/mode
REMARK            -m \                                                          
REMARK            /dls/labxchem/data/lb32627/lb32627-65/processing/analysis/mode
REMARK            -l \                                                          
REMARK            /dls/labxchem/data/lb32627/lb32627-65/processing/analysis/mode
REMARK            -autoncs -M TLSbasic -d Refine_3                              
REMARK Files used:                                                              
REMARK   PDB              = Refine_3/pdbchk.pdb                                 
REMARK   MTZ              = /dls/labxchem/data/lb32627/lb32627-65/processing/ana
REMARK output written to subdirectory = Refine_3                                
REMARK best refinement for F,SIGF with R/Rfree 0.2608/0.3288                    
REMARK header records are copied from input PDB file (apart from REMARK 3!)     
REMARK --------------------- added by autoBUSTER -------------------------------
REMARK --------------------- added by autoBUSTER -------------------------------
REMARK run at   = Thu Dec 21 11:42:36 GMT 2023                                  
REMARK     in   = /dls/labxchem/data/lb32627/lb32627-65/processing/analysis/mode
REMARK     user = kyf22269                                                      
REMARK     cmd  = \                                                             
REMARK            /dls_sw/apps/GPhL/BUSTER/20211020/autoBUSTER/bin/linux64/refin
REMARK            -p \                                                          
REMARK            /dls/labxchem/data/lb32627/lb32627-65/processing/analysis/mode
REMARK            -m \                                                          
REMARK            /dls/labxchem/data/lb32627/lb32627-65/processing/analysis/mode
REMARK            -l \                                                          
REMARK            /dls/labxchem/data/lb32627/lb32627-65/processing/analysis/mode
REMARK            -autoncs -M TLSbasic -B user -Gelly gelly.dat -d Refine_2     
REMARK Files used:                                                              
REMARK   PDB              = Refine_2/pdbchk.pdb                                 
REMARK   MTZ              = /dls/labxchem/data/lb32627/lb32627-65/processing/ana
REMARK   Gelly commands       = /dls/labxchem/data/lb32627/lb32627-65/processing
REMARK output written to subdirectory = Refine_2                                
REMARK best refinement for F,SIGF with R/Rfree 0.2581/0.3151                    
REMARK header records are copied from input PDB file (apart from REMARK 3!)     
REMARK --------------------- added by autoBUSTER -------------------------------
REMARK --------------------- added by autoBUSTER -------------------------------
REMARK run at   = Mon Dec 18 15:19:09 GMT 2023                                  
REMARK     in   = /dls/labxchem/data/lb32627/lb32627-65/processing/analysis/mode
REMARK     user = kyf22269                                                      
REMARK     cmd  = \                                                             
REMARK            /dls_sw/apps/GPhL/BUSTER/20211020/autoBUSTER/bin/linux64/refin
REMARK            -p \                                                          
REMARK            /dls/labxchem/data/lb32627/lb32627-65/processing/analysis/mode
REMARK            -m \                                                          
REMARK            /dls/labxchem/data/lb32627/lb32627-65/processing/analysis/mode
REMARK            -l \                                                          
REMARK            /dls/labxchem/data/lb32627/lb32627-65/processing/analysis/mode
REMARK            -autoncs -M TLSbasic StopOnGellySanityCheckError=no -d \      
REMARK            Refine_1                                                      
REMARK Files used:                                                              
REMARK   PDB              = Refine_1/pdbchk.pdb                                 
REMARK   MTZ              = /dls/labxchem/data/lb32627/lb32627-65/processing/ana
REMARK output written to subdirectory = Refine_1                                
REMARK best refinement for F,SIGF with R/Rfree 0.2587/0.3171                    
REMARK header records are copied from input PDB file (apart from REMARK 3!)     
REMARK --------------------- added by autoBUSTER -------------------------------
REMARK   2                                                            
REMARK   2 RESOLUTION.    1.95 ANGSTROMS.
REMARK   3
REMARK   3 REFINEMENT.
REMARK   3   PROGRAM     : BUSTER 2.10.4 (26-JUL-2023)
REMARK   3   AUTHORS     : BRICOGNE,BLANC,BRANDL,FLENSBURG,KELLER,
REMARK   3               : PACIOREK,ROVERSI,SHARFF,SMART,VONRHEIN,WOMACK;
REMARK   3               : MATTHEWS,TEN EYCK,TRONRUD
REMARK   3
REMARK   3  DATA USED IN REFINEMENT.
REMARK   3   RESOLUTION RANGE HIGH (ANGSTROMS) : 1.953
REMARK   3   RESOLUTION RANGE LOW  (ANGSTROMS) : 21.55
REMARK   3   DATA CUTOFF            (SIGMA(F)) : 0.000
REMARK   3   COMPLETENESS FOR RANGE        (%) : 87.5
REMARK   3   NUMBER OF REFLECTIONS             : 13500
REMARK   3
REMARK   3  FIT TO DATA USED IN REFINEMENT.
REMARK   3   CROSS-VALIDATION METHOD          : THROUGHOUT
REMARK   3   FREE R VALUE TEST SET SELECTION  : RANDOM
REMARK   3   R VALUE     (WORKING + TEST SET) : 0.2640
REMARK   3   R VALUE            (WORKING SET) : 0.2607
REMARK   3   FREE R VALUE                     : 0.3248
REMARK   3   FREE R VALUE TEST SET SIZE   (%) : 4.740
REMARK   3   FREE R VALUE TEST SET COUNT      : 640
REMARK   3   ESTIMATED ERROR OF FREE R VALUE  : NULL
REMARK   3
REMARK   3  FIT IN THE HIGHEST RESOLUTION BIN.
REMARK   3   TOTAL NUMBER OF BINS USED           : 33
REMARK   3   BIN RESOLUTION RANGE HIGH       (A) : 1.95
REMARK   3   BIN RESOLUTION RANGE LOW        (A) : 2.05
REMARK   3   BIN COMPLETENESS (WORKING+TEST) (%) : 21.60
REMARK   3   REFLECTIONS IN BIN   (WORKING+TEST) : 422
REMARK   3   BIN R VALUE          (WORKING+TEST) : 0.6306
REMARK   3   REFLECTIONS IN BIN    (WORKING SET) : 404
REMARK   3   BIN R VALUE           (WORKING SET) : 0.6285
REMARK   3   BIN FREE R VALUE                    : 0.6804
REMARK   3   BIN FREE R VALUE TEST SET SIZE  (%) : 4.27
REMARK   3   BIN FREE R VALUE TEST SET COUNT     : 18
REMARK   3   ESTIMATED ERROR OF BIN FREE R VALUE : NULL
REMARK   3
REMARK   3  NUMBER OF NON-HYDROGEN ATOMS USED IN REFINEMENT.
REMARK   3   PROTEIN ATOMS            : 1476
REMARK   3   NUCLEIC ACID ATOMS       : 0
REMARK   3   HETEROGEN ATOMS          : 25
REMARK   3   SOLVENT ATOMS            : 69
REMARK   3
REMARK   3  B VALUES.
REMARK   3   FROM WILSON PLOT           (A**2) : 47.90
REMARK   3   MEAN B VALUE      (OVERALL, A**2) : 79.38
REMARK   3   OVERALL ANISOTROPIC B VALUE.
REMARK   3    B11 (A**2) : 1.11710
REMARK   3    B22 (A**2) : 1.11710
REMARK   3    B33 (A**2) : -2.23420
REMARK   3    B12 (A**2) : 0.00000
REMARK   3    B13 (A**2) : 0.00000
REMARK   3    B23 (A**2) : 0.00000
REMARK   3
REMARK   3  ESTIMATED COORDINATE ERROR.
REMARK   3   ESD FROM LUZZATI PLOT                    (A) : 0.50
REMARK   3   DPI (BLOW EQ-10) BASED ON R VALUE        (A) : 0.274
REMARK   3   DPI (BLOW EQ-9) BASED ON FREE R VALUE    (A) : 0.235
REMARK   3   DPI (CRUICKSHANK) BASED ON R VALUE       (A) : 0.252
REMARK   3   DPI (CRUICKSHANK) BASED ON FREE R VALUE  (A) : 0.228
REMARK   3
REMARK   3   REFERENCES: BLOW, D. (2002) ACTA CRYST D58, 792-797
REMARK   3               CRUICKSHANK, D.W.J. (1999) ACTA CRYST D55, 583-601
REMARK   3
REMARK   3  CORRELATION COEFFICIENTS.
REMARK   3   CORRELATION COEFFICIENT FO-FC      : 0.956
REMARK   3   CORRELATION COEFFICIENT FO-FC FREE : 0.929
REMARK   3
REMARK   3  X-RAY WEIGHT : 8.48
REMARK   3
REMARK   3  GEOMETRY FUNCTION.                                                  
REMARK   3   RESTRAINT LIBRARIES.                                               
REMARK   3    NUMBER OF LIBRARIES USED :   9                                    
REMARK   3    LIBRARY  1 : protgeo_eh99.dat (V1.6.4.20) 20220523  STANDARD      
REMARK   3                 AMINO ACID DICTIONARY. BONDS AND ANGLES FROM         
REMARK   3                 ENGH AND HUBER EH99. OTHER VALUES BASED ON           
REMARK   3                 PREVIOUS TNT OR TAKEN FROM CCP4. INCLUDES            
REMARK   3                 HYDROGEN ATOMS.                                      
REMARK   3    LIBRARY  2 : exoticaa.dat (V1.3.4.16) 20220523  COLLECTION        
REMARK   3                 OF NON-STANDARD AMINO ACIDS, MAINLY EH91             
REMARK   3                 WITHOUT IDEAL DISTANCE INFO                          
REMARK   3    LIBRARY  3 : nuclgeo.dat (V1.13.4.9) 20221011                     
REMARK   3    LIBRARY  4 : bcorrel.dat (V1.15.10.2) 20190616                    
REMARK   3    LIBRARY  5 : contact.dat (V1.15.12.10) 20191121                   
REMARK   3    LIBRARY  6 : idealdist_contact.dat (V1.3.4.14) 20230724           
REMARK   3                 IDEAL-DISTANCE CONTACT TERM DATA AS USED IN          
REMARK   3                 PROLSQ. VALUES USED HERE ARE BASEd ON DATA           
REMARK   3                 HARVESTING OF PDB AS OF 20190109                     
REMARK   3    LIBRARY  7 : restraints for LIG from cif dictionary               
REMARK   3                 ASAP-0015286-001.cif                                 
REMARK   3    LIBRARY  8 : restraints for DMS (DIMETHYL SULFOXIDE) from         
REMARK   3                 cif dictionary DMS.cif; generated by grade2          
REMARK   3                 version 1.1.0a7 from                                 
REMARK   3                 PDB_chemical_components_definition_file              
REMARK   3                 ftp://ftp.ebi.ac.uk/pub/databases/msd/pdbechem_v     
REMARK   3                 2/D/DMS/DMS.cif using RDKit 2021.03.4                
REMARK   3                 ((DatabaseID PDB-DMS))                               
REMARK   3    LIBRARY  9 : assume.dat (V1.9.4.3) 20221011                       
REMARK   3                                                                      
REMARK   3   NUMBER OF GEOMETRIC FUNCTION TERMS DEFINED : 15                    
REMARK   3   TERM                          COUNT    WEIGHT   FUNCTION.          
REMARK   3    BOND LENGTHS              :   1569 ;   2.00 ;  HARMONIC           
REMARK   3    BOND ANGLES               :   2136 ;   2.00 ;  HARMONIC           
REMARK   3    TORSION ANGLES            :    540 ;   2.00 ;  SINUSOIDAL         
REMARK   3    TRIGONAL CARBON PLANES    :   NULL ;   NULL ;  NULL               
REMARK   3    GENERAL PLANES            :    271 ;   5.00 ;  HARMONIC           
REMARK   3    ISOTROPIC THERMAL FACTORS :   1546 ;  10.00 ;  HARMONIC           
REMARK   3    BAD NON-BONDED CONTACTS   :   NULL ;   NULL ;  NULL               
REMARK   3    IMPROPER TORSIONS         :   NULL ;   NULL ;  NULL               
REMARK   3    PSEUDOROTATION ANGLES     :   NULL ;   NULL ;  NULL               
REMARK   3    CHIRAL IMPROPER TORSION   :    197 ;   5.00 ;  SEMIHARMONIC       
REMARK   3    SUM OF OCCUPANCIES        :   NULL ;   NULL ;  NULL               
REMARK   3    UTILITY DISTANCES         :   NULL ;   NULL ;  NULL               
REMARK   3    UTILITY ANGLES            :   NULL ;   NULL ;  NULL               
REMARK   3    UTILITY TORSION           :   NULL ;   NULL ;  NULL               
REMARK   3    IDEAL-DIST CONTACT TERM   :   1178 ;   4.00 ;  SEMIHARMONIC       
REMARK   3                                                                      
REMARK   3   RMS DEVIATIONS FROM IDEAL VALUES.                                  
REMARK   3   BOND LENGTHS                       (A) : 0.008                     
REMARK   3   BOND ANGLES                  (DEGREES) : 1.01                      
REMARK   3   PEPTIDE OMEGA TORSION ANGLES (DEGREES) : 2.98                      
REMARK   3   OTHER TORSION ANGLES         (DEGREES) : 18.14                     
REMARK   3                                                                      
REMARK   3   SIMILARITY.                                                        
REMARK   3    NCS.                                                              
REMARK   3     NCS METHOD: NONE                                                 
REMARK   3    TARGET RESTRAINTS.                                                
REMARK   3     TARGET REPRESENTATION : NONE                                     
REMARK   3     TARGET STRUCTURE : NULL                                          
REMARK   3                                                                      
REMARK   3  TLS DETAILS.                                                        
REMARK   3   NUMBER OF TLS GROUPS  :            2                               
REMARK   3                                                                      
REMARK   3   TLS GROUP :            1                                           
REMARK   3    SET : { A|* }                                                     
REMARK   3    ORIGIN FOR THE GROUP (A):  -13.6483   -2.1257  -19.3619           
REMARK   3    T TENSOR                                                          
REMARK   3     T11:    0.3286 T22:    0.3740                                    
REMARK   3     T33:   -0.4329 T12:    0.2758                                    
REMARK   3     T13:    0.0776 T23:    0.1145                                    
REMARK   3    L TENSOR                                                          
REMARK   3     L11:    3.2590 L22:    2.4167                                    
REMARK   3     L33:    3.7367 L12:   -1.7319                                    
REMARK   3     L13:   -0.2167 L23:    0.9648                                    
REMARK   3    S TENSOR                                                          
REMARK   3     S11:    0.4264 S12:    0.6007 S13:    0.3381                     
REMARK   3     S21:   -0.5445 S22:   -0.4921 S23:   -0.4165                     
REMARK   3     S31:   -0.3173 S32:    0.4957 S33:    0.0657                     
REMARK   3                                                                      
REMARK   3   TLS GROUP :            2                                           
REMARK   3    SET : { B|* }                                                     
REMARK   3    ORIGIN FOR THE GROUP (A):  -18.4304    0.4701  -15.6106           
REMARK   3    T TENSOR                                                          
REMARK   3     T11:    0.4183 T22:    0.3292                                    
REMARK   3     T33:   -0.3585 T12:    0.2696                                    
REMARK   3     T13:    0.0617 T23:    0.0642                                    
REMARK   3    L TENSOR                                                          
REMARK   3     L11:    0.9399 L22:    1.2526                                    
REMARK   3     L33:    3.6403 L12:   -0.8868                                    
REMARK   3     L13:    0.8525 L23:   -0.5534                                    
REMARK   3    S TENSOR                                                          
REMARK   3     S11:    0.4438 S12:    0.2824 S13:    0.1734                     
REMARK   3     S21:   -0.2945 S22:   -0.4546 S23:    0.0860                     
REMARK   3     S31:   -0.0519 S32:    0.2105 S33:    0.0109                     
REMARK   3                                                                      
REMARK   3  REFINEMENT NOTES.                                                   
REMARK   3   NUMBER OF REFINEMENT NOTES :   1                                   
REMARK   3   NOTE   1 : IDEAL-DIST CONTACT TERM CONTACT SETUP. ALL ATOMS        
REMARK   3               HAVE CCP4 ATOM TYPE FROM LIBRARY                       
REMARK   3
REMARK   3  OTHER REFINEMENT REMARKS: NULL
REMARK   3
REMARK 290                                                            
REMARK 290 CRYSTALLOGRAPHIC SYMMETRY                                  
REMARK 290 SYMMETRY OPERATORS FOR SPACE GROUP: P 43 2 2               
REMARK 290                                                            
REMARK 290      SYMOP   SYMMETRY                                      
REMARK 290     NNNMMM   OPERATOR                                      
REMARK 290       1555   X,Y,Z                                         
REMARK 290       2555   -X,-Y,1/2+Z                                   
REMARK 290       3555   -Y,X,3/4+Z                                    
REMARK 290       4555   Y,-X,1/4+Z                                    
REMARK 290       5555   -X,Y,-Z                                       
REMARK 290       6555   X,-Y,1/2-Z                                    
REMARK 290       7555   Y,X,1/4-Z                                     
REMARK 290       8555   -Y,-X,3/4-Z                                   
REMARK 290                                                            
REMARK 290     WHERE NNN -> OPERATOR NUMBER                           
REMARK 290           MMM -> TRANSLATION VECTOR                        
REMARK 290                                                            
REMARK 290 CRYSTALLOGRAPHIC SYMMETRY TRANSFORMATIONS                  
REMARK 290 THE FOLLOWING TRANSFORMATIONS OPERATE ON THE ATOM/HETATM   
REMARK 290 RECORDS IN THIS ENTRY TO PRODUCE CRYSTALLOGRAPHICALLY      
REMARK 290 RELATED MOLECULES.                                         
REMARK 290   SMTRY1   1  1.000000  0.000000  0.000000        0.00000
REMARK 290   SMTRY2   1  0.000000  1.000000  0.000000        0.00000
REMARK 290   SMTRY3   1  0.000000  0.000000  1.000000        0.00000
REMARK 290   SMTRY1   2 -1.000000  0.000000  0.000000        0.00000
REMARK 290   SMTRY2   2  0.000000 -1.000000  0.000000        0.00000
REMARK 290   SMTRY3   2  0.000000  0.000000  1.000000      108.04100
REMARK 290   SMTRY1   3  0.000000 -1.000000  0.000000        0.00000
REMARK 290   SMTRY2   3  1.000000  0.000000  0.000000        0.00000
REMARK 290   SMTRY3   3  0.000000  0.000000  1.000000      162.06150
REMARK 290   SMTRY1   4  0.000000  1.000000  0.000000        0.00000
REMARK 290   SMTRY2   4 -1.000000  0.000000  0.000000        0.00000
REMARK 290   SMTRY3   4  0.000000  0.000000  1.000000       54.02050
REMARK 290   SMTRY1   5 -1.000000  0.000000  0.000000        0.00000
REMARK 290   SMTRY2   5  0.000000  1.000000  0.000000        0.00000
REMARK 290   SMTRY3   5  0.000000  0.000000 -1.000000        0.00000
REMARK 290   SMTRY1   6  1.000000  0.000000  0.000000        0.00000
REMARK 290   SMTRY2   6  0.000000 -1.000000  0.000000        0.00000
REMARK 290   SMTRY3   6  0.000000  0.000000 -1.000000      108.04100
REMARK 290   SMTRY1   7  0.000000  1.000000  0.000000        0.00000
REMARK 290   SMTRY2   7  1.000000  0.000000  0.000000        0.00000
REMARK 290   SMTRY3   7  0.000000  0.000000 -1.000000       54.02050
REMARK 290   SMTRY1   8  0.000000 -1.000000  0.000000        0.00000
REMARK 290   SMTRY2   8 -1.000000  0.000000  0.000000        0.00000
REMARK 290   SMTRY3   8  0.000000  0.000000 -1.000000      162.06150
REMARK 290                                                            
REMARK 290 REMARK: NULL                                               
CRYST1   42.570   42.570  216.082  90.00  90.00  90.00 P 43 2 2                 


$$$$
Zx2262a_ligand
  PyMOL3.0          3D                             0

 21 23  0  0  0  0  0  0  0  0999 V2000
   -8.7390    7.8400  -11.9460 C   0  0  0  0  0  0  0  0  0  0  0  0
   -8.5890    5.8040  -10.6040 N   0  0  0  0  0  0  0  0  0  0  0  0
   -7.9870    6.5060  -14.7560 O   0  0  0  0  0  0  0  0  0  0  0  0
   -8.6090    6.3610  -11.8150 C   0  0  0  0  0  0  0  0  0  0  0  0
   -7.7850    1.2570   -8.8690 N   0  0  0  0  0  0  0  0  0  0  0  0
   -8.4840    4.4710  -10.7610 C   0  0  0  0  0  0  0  0  0  0  0  0
   -8.4400    4.1760  -12.1050 N   0  0  0  0  0  0  0  0  0  0  0  0
   -8.4200    3.5700   -9.5660 C   0  0  0  0  0  0  0  0  0  0  0  0
   -9.1420    4.5560  -14.9400 N   0  0  0  0  0  0  0  0  0  0  0  0
   -9.7830    3.0730   -9.1200 C   0  0  0  0  0  0  0  0  0  0  0  0
   -8.2290    4.9830  -17.0180 N   0  0  0  0  0  0  0  0  0  0  0  0
   -9.7160    2.3740   -7.7620 C   0  0  0  0  0  0  0  0  0  0  0  0
   -8.3870    1.6620   -7.5870 C   0  0  0  0  0  0  0  0  0  0  0  0
   -7.4630    2.4010   -9.7530 C   0  0  0  0  0  0  0  0  0  0  0  0
   -8.4940    5.3750  -12.7780 C   0  0  0  0  0  0  0  0  0  0  0  0
   -8.4900    5.5170  -14.2390 C   0  0  0  0  0  0  0  0  0  0  0  0
   -9.2610    4.4740  -16.3360 C   0  0  0  0  0  0  0  0  0  0  0  0
  -10.3420    3.8600  -16.9660 C   0  0  0  0  0  0  0  0  0  0  0  0
  -10.3750    3.8440  -18.3400 C   0  0  0  0  0  0  0  0  0  0  0  0
   -9.3210    4.3620  -19.0540 C   0  0  0  0  0  0  0  0  0  0  0  0
   -8.2870    4.9310  -18.3590 C   0  0  0  0  0  0  0  0  0  0  0  0
  1  4  1  0  0  0  0
  2  6  4  0  0  0  0
  2  4  4  0  0  0  0
  4 15  4  0  0  0  0
  5 14  1  0  0  0  0
  6  7  4  0  0  0  0
  6  8  1  0  0  0  0
  7 15  4  0  0  0  0
  8 10  1  0  0  0  0
  8 14  1  0  0  0  0
  9 17  1  0  0  0  0
 10 12  1  0  0  0  0
 12 13  1  0  0  0  0
  5 13  1  0  0  0  0
 15 16  1  0  0  0  0
  3 16  2  0  0  0  0
  9 16  1  0  0  0  0
 11 17  4  0  0  0  0
 17 18  4  0  0  0  0
 18 19  4  0  0  0  0
 19 20  4  0  0  0  0
 20 21  4  0  0  0  0
 11 21  4  0  0  0  0
M  END
>  <pdb_header>
COMPND    XX01ZVNS2B-x2262_B_301_XX01ZVNS2B-x1291+B+301+1


$$$$
Zx2306a
  PyMOL3.0          3D                             0

 25 28  0  0  0  0  0  0  0  0999 V2000
   -2.2490    7.0720  -20.5740 C   0  0  0  0  0  0  0  0  0  0  0  0
   -4.3480    5.8070  -20.7430 N   0  0  0  0  0  0  0  0  0  0  0  0
   -7.0130    6.2100  -13.6930 O   0  0  0  0  0  0  0  0  0  0  0  0
   -2.8810    5.7100  -20.7940 C   0  0  0  0  0  0  0  0  0  0  0  0
   -6.3960    5.1480  -19.8270 N   0  0  0  0  0  0  0  0  0  0  0  0
   -2.3570    4.6630  -19.8250 C   0  0  0  0  0  0  0  0  0  0  0  0
   -8.3930    4.4220  -13.7200 N   0  0  0  0  0  0  0  0  0  0  0  0
   -5.1440    5.5380  -19.6840 C   0  0  0  0  0  0  0  0  0  0  0  0
   -8.5380    3.2370  -11.6060 N   0  0  0  0  0  0  0  0  0  0  0  0
   -6.8900    5.1010  -18.5250 C   0  0  0  0  0  0  0  0  0  0  0  0
   -8.6270    3.6030  -10.2520 N   0  0  0  0  0  0  0  0  0  0  0  0
   -8.1460    4.7170  -18.0540 C   0  0  0  0  0  0  0  0  0  0  0  0
   -8.6580    6.7730  -11.8650 N   0  0  0  0  0  0  0  0  0  0  0  0
   -8.3730    4.7620  -16.7010 C   0  0  0  0  0  0  0  0  0  0  0  0
   -8.6140    5.4360  -11.4920 N   0  0  0  0  0  0  0  0  0  0  0  0
   -7.4010    5.2330  -15.8060 C   0  0  0  0  0  0  0  0  0  0  0  0
   -4.8270    5.8860  -18.4100 N   0  0  0  0  0  0  0  0  0  0  0  0
   -7.6070    5.3540  -14.3290 C   0  0  0  0  0  0  0  0  0  0  0  0
   -8.5030    4.3380  -12.3370 C   0  0  0  0  0  0  0  0  0  0  0  0
   -8.6760    4.9410  -10.2260 C   0  0  0  0  0  0  0  0  0  0  0  0
   -8.7810    5.8560   -9.1580 C   0  0  0  0  0  0  0  0  0  0  0  0
   -8.8340    7.1940   -9.4870 C   0  0  0  0  0  0  0  0  0  0  0  0
   -8.7630    7.6040  -10.8570 C   0  0  0  0  0  0  0  0  0  0  0  0
   -6.1610    5.6280  -16.2750 C   0  0  0  0  0  0  0  0  0  0  0  0
   -5.9180    5.5550  -17.6310 C   0  0  0  0  0  0  0  0  0  0  0  0
  1  4  1  0  0  0  0
  2  8  1  0  0  0  0
  2  4  1  0  0  0  0
  4  6  1  0  0  0  0
  5 10  4  0  0  0  0
  7 19  1  0  0  0  0
  5  8  4  0  0  0  0
  8 17  4  0  0  0  0
  9 11  4  0  0  0  0
 10 12  4  0  0  0  0
 10 25  4  0  0  0  0
 11 20  4  0  0  0  0
 12 14  4  0  0  0  0
 13 15  4  0  0  0  0
 14 16  4  0  0  0  0
 16 18  1  0  0  0  0
 16 24  4  0  0  0  0
  3 18  2  0  0  0  0
  7 18  1  0  0  0  0
  9 19  4  0  0  0  0
 15 19  4  0  0  0  0
 15 20  4  0  0  0  0
 20 21  4  0  0  0  0
 21 22  4  0  0  0  0
 22 23  4  0  0  0  0
 13 23  4  0  0  0  0
 24 25  4  0  0  0  0
 17 25  4  0  0  0  0
M  END
>  <pdb_header>
HEADER    ----                                    23-FEB-23                     
TITLE     ---                                                                   
EXPDTA    X-RAY DIFFRACTION                                                     
REMARK --------------------- added by autoBUSTER ---------------------------------START
REMARK run at   = Thu Dec 21 14:05:23 GMT 2023
REMARK     in   = /dls/labxchem/data/lb32627/lb32627-65/processing/analysis/model_building/XX01ZVNS2B-x2306
REMARK     user = kyf22269
REMARK     cmd  = \
REMARK            /dls_sw/apps/GPhL/BUSTER/20211020/autoBUSTER/bin/linux64/refine \
REMARK            -p \
REMARK            /dls/labxchem/data/lb32627/lb32627-65/processing/analysis/model_building/XX01ZVNS2B-x2306/cootOut/Refi
REMARK            -m \
REMARK            /dls/labxchem/data/lb32627/lb32627-65/processing/analysis/model_building/XX01ZVNS2B-x2306/XX01ZVNS2B-x
REMARK            -l \
REMARK            /dls/labxchem/data/lb32627/lb32627-65/processing/analysis/model_building/XX01ZVNS2B-x2306/ASAP-0015288
REMARK            -autoncs -M TLSbasic -B user -Gelly gelly.dat -d Refine_5
REMARK Files used:
REMARK   PDB              = Refine_5/pdbchk.pdb
REMARK   MTZ              = /dls/labxchem/data/lb32627/lb32627-65/processing/analysis/model_building/XX01ZVNS2B-x2306/XX
REMARK   Gelly commands       = /dls/labxchem/data/lb32627/lb32627-65/processing/analysis/model_building/XX01ZVNS2B-x230
REMARK output written to subdirectory = Refine_5
REMARK best refinement for F,SIGF with R/Rfree 0.2566/0.2958
REMARK header records are copied from input PDB file (apart from REMARK 3!)
REMARK --------------------- added by autoBUSTER -----------------------------------END
REMARK --------------------- added by autoBUSTER -------------------------------
REMARK run at   = Thu Dec 21 12:11:24 GMT 2023                                  
REMARK     in   = /dls/labxchem/data/lb32627/lb32627-65/processing/analysis/mode
REMARK     user = kyf22269                                                      
REMARK     cmd  = \                                                             
REMARK            /dls_sw/apps/GPhL/BUSTER/20211020/autoBUSTER/bin/linux64/refin
REMARK            -p \                                                          
REMARK            /dls/labxchem/data/lb32627/lb32627-65/processing/analysis/mode
REMARK            -m \                                                          
REMARK            /dls/labxchem/data/lb32627/lb32627-65/processing/analysis/mode
REMARK            -l \                                                          
REMARK            /dls/labxchem/data/lb32627/lb32627-65/processing/analysis/mode
REMARK            -autoncs -M TLSbasic -d Refine_4                              
REMARK Files used:                                                              
REMARK   PDB              = Refine_4/pdbchk.pdb                                 
REMARK   MTZ              = /dls/labxchem/data/lb32627/lb32627-65/processing/ana
REMARK output written to subdirectory = Refine_4                                
REMARK best refinement for F,SIGF with R/Rfree 0.2556/0.3062                    
REMARK header records are copied from input PDB file (apart from REMARK 3!)     
REMARK --------------------- added by autoBUSTER -------------------------------
REMARK --------------------- added by autoBUSTER -------------------------------
REMARK run at   = Wed Dec 20 18:04:29 GMT 2023                                  
REMARK     in   = /dls/labxchem/data/lb32627/lb32627-65/processing/analysis/mode
REMARK     user = kyf22269                                                      
REMARK     cmd  = \                                                             
REMARK            /dls_sw/apps/GPhL/BUSTER/20211020/autoBUSTER/bin/linux64/refin
REMARK            -p \                                                          
REMARK            /dls/labxchem/data/lb32627/lb32627-65/processing/analysis/mode
REMARK            -m \                                                          
REMARK            /dls/labxchem/data/lb32627/lb32627-65/processing/analysis/mode
REMARK            -l \                                                          
REMARK            /dls/labxchem/data/lb32627/lb32627-65/processing/analysis/mode
REMARK            -autoncs -M TLSbasic -d Refine_3                              
REMARK Files used:                                                              
REMARK   PDB              = Refine_3/pdbchk.pdb                                 
REMARK   MTZ              = /dls/labxchem/data/lb32627/lb32627-65/processing/ana
REMARK output written to subdirectory = Refine_3                                
REMARK best refinement for F,SIGF with R/Rfree 0.2547/0.3032                    
REMARK header records are copied from input PDB file (apart from REMARK 3!)     
REMARK --------------------- added by autoBUSTER -------------------------------
REMARK --------------------- added by autoBUSTER -------------------------------
REMARK run at   = Wed Dec 20 11:10:54 GMT 2023                                  
REMARK     in   = /dls/labxchem/data/lb32627/lb32627-65/processing/analysis/mode
REMARK     user = kyf22269                                                      
REMARK     cmd  = \                                                             
REMARK            /dls_sw/apps/GPhL/BUSTER/20211020/autoBUSTER/bin/linux64/refin
REMARK            -p \                                                          
REMARK            /dls/labxchem/data/lb32627/lb32627-65/processing/analysis/mode
REMARK            -m \                                                          
REMARK            /dls/labxchem/data/lb32627/lb32627-65/processing/analysis/mode
REMARK            -l \                                                          
REMARK            /dls/labxchem/data/lb32627/lb32627-65/processing/analysis/mode
REMARK            -autoncs -M TLSbasic -B user -Gelly gelly.dat -d Refine_2     
REMARK Files used:                                                              
REMARK   PDB              = Refine_2/pdbchk.pdb                                 
REMARK   MTZ              = /dls/labxchem/data/lb32627/lb32627-65/processing/ana
REMARK   Gelly commands       = /dls/labxchem/data/lb32627/lb32627-65/processing
REMARK output written to subdirectory = Refine_2                                
REMARK best refinement for F,SIGF with R/Rfree 0.2572/0.2969                    
REMARK header records are copied from input PDB file (apart from REMARK 3!)     
REMARK --------------------- added by autoBUSTER -------------------------------
REMARK --------------------- added by autoBUSTER -------------------------------
REMARK run at   = Mon Dec 18 15:19:12 GMT 2023                                  
REMARK     in   = /dls/labxchem/data/lb32627/lb32627-65/processing/analysis/mode
REMARK     user = kyf22269                                                      
REMARK     cmd  = \                                                             
REMARK            /dls_sw/apps/GPhL/BUSTER/20211020/autoBUSTER/bin/linux64/refin
REMARK            -p \                                                          
REMARK            /dls/labxchem/data/lb32627/lb32627-65/processing/analysis/mode
REMARK            -m \                                                          
REMARK            /dls/labxchem/data/lb32627/lb32627-65/processing/analysis/mode
REMARK            -l \                                                          
REMARK            /dls/labxchem/data/lb32627/lb32627-65/processing/analysis/mode
REMARK            -autoncs -M TLSbasic StopOnGellySanityCheckError=no -d \      
REMARK            Refine_1                                                      
REMARK Files used:                                                              
REMARK   PDB              = Refine_1/pdbchk.pdb                                 
REMARK   MTZ              = /dls/labxchem/data/lb32627/lb32627-65/processing/ana
REMARK output written to subdirectory = Refine_1                                
REMARK best refinement for F,SIGF with R/Rfree 0.2546/0.3084                    
REMARK header records are copied from input PDB file (apart from REMARK 3!)     
REMARK --------------------- added by autoBUSTER -------------------------------
REMARK   2                                                            
REMARK   2 RESOLUTION.    2.11 ANGSTROMS.
REMARK   3
REMARK   3 REFINEMENT.
REMARK   3   PROGRAM     : BUSTER 2.10.4 (20-OCT-2021)
REMARK   3   AUTHORS     : BRICOGNE,BLANC,BRANDL,FLENSBURG,KELLER,
REMARK   3               : PACIOREK,ROVERSI,SHARFF,SMART,VONRHEIN,WOMACK;
REMARK   3               : MATTHEWS,TEN EYCK,TRONRUD
REMARK   3
REMARK   3  DATA USED IN REFINEMENT.
REMARK   3   RESOLUTION RANGE HIGH (ANGSTROMS) : 2.109
REMARK   3   RESOLUTION RANGE LOW  (ANGSTROMS) : 21.65
REMARK   3   DATA CUTOFF            (SIGMA(F)) : 0.000
REMARK   3   COMPLETENESS FOR RANGE        (%) : 91.8
REMARK   3   NUMBER OF REFLECTIONS             : 11480
REMARK   3
REMARK   3  FIT TO DATA USED IN REFINEMENT.
REMARK   3   CROSS-VALIDATION METHOD          : THROUGHOUT
REMARK   3   FREE R VALUE TEST SET SELECTION  : RANDOM
REMARK   3   R VALUE     (WORKING + TEST SET) : 0.2585
REMARK   3   R VALUE            (WORKING SET) : 0.2565
REMARK   3   FREE R VALUE                     : 0.2959
REMARK   3   FREE R VALUE TEST SET SIZE   (%) : 4.760
REMARK   3   FREE R VALUE TEST SET COUNT      : 546
REMARK   3   ESTIMATED ERROR OF FREE R VALUE  : NULL
REMARK   3
REMARK   3  FIT IN THE HIGHEST RESOLUTION BIN.
REMARK   3   TOTAL NUMBER OF BINS USED           : 28
REMARK   3   BIN RESOLUTION RANGE HIGH       (A) : 2.11
REMARK   3   BIN RESOLUTION RANGE LOW        (A) : 2.19
REMARK   3   BIN COMPLETENESS (WORKING+TEST) (%) : 33.02
REMARK   3   REFLECTIONS IN BIN   (WORKING+TEST) : 426
REMARK   3   BIN R VALUE          (WORKING+TEST) : 0.4789
REMARK   3   REFLECTIONS IN BIN    (WORKING SET) : 408
REMARK   3   BIN R VALUE           (WORKING SET) : 0.4809
REMARK   3   BIN FREE R VALUE                    : 0.4345
REMARK   3   BIN FREE R VALUE TEST SET SIZE  (%) : 4.23
REMARK   3   BIN FREE R VALUE TEST SET COUNT     : 18
REMARK   3   ESTIMATED ERROR OF BIN FREE R VALUE : NULL
REMARK   3
REMARK   3  NUMBER OF NON-HYDROGEN ATOMS USED IN REFINEMENT.
REMARK   3   PROTEIN ATOMS            : 1472
REMARK   3   NUCLEIC ACID ATOMS       : 0
REMARK   3   HETEROGEN ATOMS          : 29
REMARK   3   SOLVENT ATOMS            : 41
REMARK   3
REMARK   3  B VALUES.
REMARK   3   FROM WILSON PLOT           (A**2) : 49.23
REMARK   3   MEAN B VALUE      (OVERALL, A**2) : 72.76
REMARK   3   OVERALL ANISOTROPIC B VALUE.
REMARK   3    B11 (A**2) : -12.69830
REMARK   3    B22 (A**2) : -12.69830
REMARK   3    B33 (A**2) : 25.39660
REMARK   3    B12 (A**2) : 0.00000
REMARK   3    B13 (A**2) : 0.00000
REMARK   3    B23 (A**2) : 0.00000
REMARK   3
REMARK   3  ESTIMATED COORDINATE ERROR.
REMARK   3   ESD FROM LUZZATI PLOT                    (A) : 0.49
REMARK   3   DPI (BLOW EQ-10) BASED ON R VALUE        (A) : 0.332
REMARK   3   DPI (BLOW EQ-9) BASED ON FREE R VALUE    (A) : 0.243
REMARK   3   DPI (CRUICKSHANK) BASED ON R VALUE       (A) : 0.306
REMARK   3   DPI (CRUICKSHANK) BASED ON FREE R VALUE  (A) : 0.237
REMARK   3
REMARK   3   REFERENCES: BLOW, D. (2002) ACTA CRYST D58, 792-797
REMARK   3               CRUICKSHANK, D.W.J. (1999) ACTA CRYST D55, 583-601
REMARK   3
REMARK   3  CORRELATION COEFFICIENTS.
REMARK   3   CORRELATION COEFFICIENT FO-FC      : 0.920
REMARK   3   CORRELATION COEFFICIENT FO-FC FREE : 0.907
REMARK   3
REMARK   3  X-RAY WEIGHT : 9.48
REMARK   3
REMARK   3  GEOMETRY FUNCTION.                                                  
REMARK   3   RESTRAINT LIBRARIES.                                               
REMARK   3    NUMBER OF LIBRARIES USED :   9                                    
REMARK   3    LIBRARY  1 : protgeo_eh99.dat (V1.6.4.17) 20191001  STANDARD      
REMARK   3                 AMINO ACID DICTIONARY. BONDS AND ANGLES FROM         
REMARK   3                 ENGH AND HUBER EH99. OTHER VALUES BASED ON           
REMARK   3                 PREVIOUS TNT OR TAKEN FROM CCP4. INCLUDES            
REMARK   3                 HYDROGEN ATOMS.                                      
REMARK   3    LIBRARY  2 : exoticaa.dat (V1.3.4.15) 20200327  COLLECTION        
REMARK   3                 OF NON-STANDARD AMINO ACIDS, MAINLY EH91             
REMARK   3                 WITHOUT IDEAL DISTANCE INFO                          
REMARK   3    LIBRARY  3 : nuclgeo.dat (V1.13.4.8) 20190909                     
REMARK   3    LIBRARY  4 : bcorrel.dat (V1.15.10.2) 20190616                    
REMARK   3    LIBRARY  5 : contact.dat (V1.15.12.10) 20191121                   
REMARK   3    LIBRARY  6 : idealdist_contact.dat (V1.3.4.12) 20191001           
REMARK   3                 IDEAL-DISTANCE CONTACT TERM DATA AS USED IN          
REMARK   3                 PROLSQ. VALUES USED HERE ARE BASED ON DATA           
REMARK   3                 HARVESTING OF PDB AS OF 20190109.                    
REMARK   3    LIBRARY  7 : restraints for LIG from cif dictionary               
REMARK   3                 ASAP-0015288-001.cif                                 
REMARK   3    LIBRARY  8 : restraints for DMS (DIMETHYL SULFOXIDE) from         
REMARK   3                 cif dictionary DMS.cif; buster common-compounds      
REMARK   3                 v 2.0 (19 Dec 2011)                                  
REMARK   3    LIBRARY  9 : assume.dat (V1.9.4.2) 20180705                       
REMARK   3                                                                      
REMARK   3   NUMBER OF GEOMETRIC FUNCTION TERMS DEFINED : 15                    
REMARK   3   TERM                          COUNT    WEIGHT   FUNCTION.          
REMARK   3    BOND LENGTHS              :   1570 ;   2.00 ;  HARMONIC           
REMARK   3    BOND ANGLES               :   2140 ;   2.00 ;  HARMONIC           
REMARK   3    TORSION ANGLES            :    539 ;   2.00 ;  SINUSOIDAL         
REMARK   3    TRIGONAL CARBON PLANES    :   NULL ;   NULL ;  NULL               
REMARK   3    GENERAL PLANES            :    270 ;   5.00 ;  HARMONIC           
REMARK   3    ISOTROPIC THERMAL FACTORS :   1542 ;  10.00 ;  HARMONIC           
REMARK   3    BAD NON-BONDED CONTACTS   :   NULL ;   NULL ;  NULL               
REMARK   3    IMPROPER TORSIONS         :   NULL ;   NULL ;  NULL               
REMARK   3    PSEUDOROTATION ANGLES     :   NULL ;   NULL ;  NULL               
REMARK   3    CHIRAL IMPROPER TORSION   :    196 ;   5.00 ;  SEMIHARMONIC       
REMARK   3    SUM OF OCCUPANCIES        :   NULL ;   NULL ;  NULL               
REMARK   3    UTILITY DISTANCES         :   NULL ;   NULL ;  NULL               
REMARK   3    UTILITY ANGLES            :   NULL ;   NULL ;  NULL               
REMARK   3    UTILITY TORSION           :   NULL ;   NULL ;  NULL               
REMARK   3    IDEAL-DIST CONTACT TERM   :   1032 ;   4.00 ;  SEMIHARMONIC       
REMARK   3                                                                      
REMARK   3   RMS DEVIATIONS FROM IDEAL VALUES.                                  
REMARK   3   BOND LENGTHS                       (A) : 0.008                     
REMARK   3   BOND ANGLES                  (DEGREES) : 0.99                      
REMARK   3   PEPTIDE OMEGA TORSION ANGLES (DEGREES) : 3.00                      
REMARK   3   OTHER TORSION ANGLES         (DEGREES) : 18.11                     
REMARK   3                                                                      
REMARK   3   SIMILARITY.                                                        
REMARK   3    NCS.                                                              
REMARK   3     NCS METHOD: NONE                                                 
REMARK   3    TARGET RESTRAINTS.                                                
REMARK   3     TARGET REPRESENTATION : NONE                                     
REMARK   3     TARGET STRUCTURE : NULL                                          
REMARK   3                                                                      
REMARK   3  TLS DETAILS.                                                        
REMARK   3   NUMBER OF TLS GROUPS  :            2                               
REMARK   3                                                                      
REMARK   3   TLS GROUP :            1                                           
REMARK   3    SET : { A|* }                                                     
REMARK   3    ORIGIN FOR THE GROUP (A):  -13.7705   -2.0168  -19.5743           
REMARK   3    T TENSOR                                                          
REMARK   3     T11:   -0.1796 T22:   -0.2068                                    
REMARK   3     T33:   -0.2171 T12:    0.1612                                    
REMARK   3     T13:    0.1851 T23:    0.1533                                    
REMARK   3    L TENSOR                                                          
REMARK   3     L11:    5.5441 L22:    5.9580                                    
REMARK   3     L33:    4.8129 L12:   -1.7512                                    
REMARK   3     L13:    1.4584 L23:    1.4326                                    
REMARK   3    S TENSOR                                                          
REMARK   3     S11:    0.4795 S12:    0.5744 S13:    0.2417                     
REMARK   3     S21:   -0.7139 S22:   -0.4073 S23:   -0.4898                     
REMARK   3     S31:   -0.2565 S32:    0.5259 S33:   -0.0722                     
REMARK   3                                                                      
REMARK   3   TLS GROUP :            2                                           
REMARK   3    SET : { B|* }                                                     
REMARK   3    ORIGIN FOR THE GROUP (A):  -18.3380    0.4794  -15.7712           
REMARK   3    T TENSOR                                                          
REMARK   3     T11:    0.0098 T22:   -0.0797                                    
REMARK   3     T33:    0.0092 T12:    0.2057                                    
REMARK   3     T13:    0.0294 T23:    0.0449                                    
REMARK   3    L TENSOR                                                          
REMARK   3     L11:    2.3693 L22:    2.5194                                    
REMARK   3     L33:    2.6718 L12:   -1.0783                                    
REMARK   3     L13:    0.5921 L23:   -0.0413                                    
REMARK   3    S TENSOR                                                          
REMARK   3     S11:    0.4377 S12:    0.1997 S13:    0.1516                     
REMARK   3     S21:   -0.2536 S22:   -0.4003 S23:    0.0086                     
REMARK   3     S31:   -0.0540 S32:    0.1236 S33:   -0.0375                     
REMARK   3                                                                      
REMARK   3  REFINEMENT NOTES.                                                   
REMARK   3   NUMBER OF REFINEMENT NOTES :   1                                   
REMARK   3   NOTE   1 : IDEAL-DIST CONTACT TERM CONTACT SETUP. ALL ATOMS        
REMARK   3               HAVE CCP4 ATOM TYPE FROM LIBRARY                       
REMARK   3
REMARK   3  OTHER REFINEMENT REMARKS: NULL
REMARK   3
REMARK 290                                                            
REMARK 290 CRYSTALLOGRAPHIC SYMMETRY                                  
REMARK 290 SYMMETRY OPERATORS FOR SPACE GROUP: P 43 2 2               
REMARK 290                                                            
REMARK 290      SYMOP   SYMMETRY                                      
REMARK 290     NNNMMM   OPERATOR                                      
REMARK 290       1555   X,Y,Z                                         
REMARK 290       2555   -X,-Y,1/2+Z                                   
REMARK 290       3555   -Y,X,3/4+Z                                    
REMARK 290       4555   Y,-X,1/4+Z                                    
REMARK 290       5555   -X,Y,-Z                                       
REMARK 290       6555   X,-Y,1/2-Z                                    
REMARK 290       7555   Y,X,1/4-Z                                     
REMARK 290       8555   -Y,-X,3/4-Z                                   
REMARK 290                                                            
REMARK 290     WHERE NNN -> OPERATOR NUMBER                           
REMARK 290           MMM -> TRANSLATION VECTOR                        
REMARK 290                                                            
REMARK 290 CRYSTALLOGRAPHIC SYMMETRY TRANSFORMATIONS                  
REMARK 290 THE FOLLOWING TRANSFORMATIONS OPERATE ON THE ATOM/HETATM   
REMARK 290 RECORDS IN THIS ENTRY TO PRODUCE CRYSTALLOGRAPHICALLY      
REMARK 290 RELATED MOLECULES.                                         
REMARK 290   SMTRY1   1  1.000000  0.000000  0.000000        0.00000
REMARK 290   SMTRY2   1  0.000000  1.000000  0.000000        0.00000
REMARK 290   SMTRY3   1  0.000000  0.000000  1.000000        0.00000
REMARK 290   SMTRY1   2 -1.000000  0.000000  0.000000        0.00000
REMARK 290   SMTRY2   2  0.000000 -1.000000  0.000000        0.00000
REMARK 290   SMTRY3   2  0.000000  0.000000  1.000000      108.81800
REMARK 290   SMTRY1   3  0.000000 -1.000000  0.000000        0.00000
REMARK 290   SMTRY2   3  1.000000  0.000000  0.000000        0.00000
REMARK 290   SMTRY3   3  0.000000  0.000000  1.000000      163.22700
REMARK 290   SMTRY1   4  0.000000  1.000000  0.000000        0.00000
REMARK 290   SMTRY2   4 -1.000000  0.000000  0.000000        0.00000
REMARK 290   SMTRY3   4  0.000000  0.000000  1.000000       54.40900
REMARK 290   SMTRY1   5 -1.000000  0.000000  0.000000        0.00000
REMARK 290   SMTRY2   5  0.000000  1.000000  0.000000        0.00000
REMARK 290   SMTRY3   5  0.000000  0.000000 -1.000000        0.00000
REMARK 290   SMTRY1   6  1.000000  0.000000  0.000000        0.00000
REMARK 290   SMTRY2   6  0.000000 -1.000000  0.000000        0.00000
REMARK 290   SMTRY3   6  0.000000  0.000000 -1.000000      108.81800
REMARK 290   SMTRY1   7  0.000000  1.000000  0.000000        0.00000
REMARK 290   SMTRY2   7  1.000000  0.000000  0.000000        0.00000
REMARK 290   SMTRY3   7  0.000000  0.000000 -1.000000       54.40900
REMARK 290   SMTRY1   8  0.000000 -1.000000  0.000000        0.00000
REMARK 290   SMTRY2   8 -1.000000  0.000000  0.000000        0.00000
REMARK 290   SMTRY3   8  0.000000  0.000000 -1.000000      163.22700
REMARK 290                                                            
REMARK 290 REMARK: NULL                                               
CRYST1   42.676   42.676  217.636  90.00  90.00  90.00 P 43 2 2                 


$$$$
Zx2306a_ligand
  PyMOL3.0          3D                             0

 25 28  0  0  0  0  0  0  0  0999 V2000
   -2.2490    7.0720  -20.5740 C   0  0  0  0  0  0  0  0  0  0  0  0
   -4.3480    5.8070  -20.7430 N   0  0  0  0  0  0  0  0  0  0  0  0
   -7.0130    6.2100  -13.6930 O   0  0  0  0  0  0  0  0  0  0  0  0
   -2.8810    5.7100  -20.7940 C   0  0  0  0  0  0  0  0  0  0  0  0
   -6.3960    5.1480  -19.8270 N   0  0  0  0  0  0  0  0  0  0  0  0
   -2.3570    4.6630  -19.8250 C   0  0  0  0  0  0  0  0  0  0  0  0
   -8.3930    4.4220  -13.7200 N   0  0  0  0  0  0  0  0  0  0  0  0
   -5.1440    5.5380  -19.6840 C   0  0  0  0  0  0  0  0  0  0  0  0
   -8.5380    3.2370  -11.6060 N   0  0  0  0  0  0  0  0  0  0  0  0
   -6.8900    5.1010  -18.5250 C   0  0  0  0  0  0  0  0  0  0  0  0
   -8.6270    3.6030  -10.2520 N   0  0  0  0  0  0  0  0  0  0  0  0
   -8.1460    4.7170  -18.0540 C   0  0  0  0  0  0  0  0  0  0  0  0
   -8.6580    6.7730  -11.8650 N   0  0  0  0  0  0  0  0  0  0  0  0
   -8.3730    4.7620  -16.7010 C   0  0  0  0  0  0  0  0  0  0  0  0
   -8.6140    5.4360  -11.4920 N   0  0  0  0  0  0  0  0  0  0  0  0
   -7.4010    5.2330  -15.8060 C   0  0  0  0  0  0  0  0  0  0  0  0
   -4.8270    5.8860  -18.4100 N   0  0  0  0  0  0  0  0  0  0  0  0
   -7.6070    5.3540  -14.3290 C   0  0  0  0  0  0  0  0  0  0  0  0
   -8.5030    4.3380  -12.3370 C   0  0  0  0  0  0  0  0  0  0  0  0
   -8.6760    4.9410  -10.2260 C   0  0  0  0  0  0  0  0  0  0  0  0
   -8.7810    5.8560   -9.1580 C   0  0  0  0  0  0  0  0  0  0  0  0
   -8.8340    7.1940   -9.4870 C   0  0  0  0  0  0  0  0  0  0  0  0
   -8.7630    7.6040  -10.8570 C   0  0  0  0  0  0  0  0  0  0  0  0
   -6.1610    5.6280  -16.2750 C   0  0  0  0  0  0  0  0  0  0  0  0
   -5.9180    5.5550  -17.6310 C   0  0  0  0  0  0  0  0  0  0  0  0
  1  4  1  0  0  0  0
  2  8  1  0  0  0  0
  2  4  1  0  0  0  0
  4  6  1  0  0  0  0
  5 10  4  0  0  0  0
  7 19  1  0  0  0  0
  5  8  4  0  0  0  0
  8 17  4  0  0  0  0
  9 11  4  0  0  0  0
 10 12  4  0  0  0  0
 10 25  4  0  0  0  0
 11 20  4  0  0  0  0
 12 14  4  0  0  0  0
 13 15  4  0  0  0  0
 14 16  4  0  0  0  0
 16 18  1  0  0  0  0
 16 24  4  0  0  0  0
  3 18  2  0  0  0  0
  7 18  1  0  0  0  0
  9 19  4  0  0  0  0
 15 19  4  0  0  0  0
 15 20  4  0  0  0  0
 20 21  4  0  0  0  0
 21 22  4  0  0  0  0
 22 23  4  0  0  0  0
 13 23  4  0  0  0  0
 24 25  4  0  0  0  0
 17 25  4  0  0  0  0
M  END
>  <pdb_header>
COMPND    XX01ZVNS2B-x2306_B_301_XX01ZVNS2B-x1291+B+301+1


$$$$
Zx2439a
  PyMOL3.0          3D                             0

 23 25  0  0  0  0  0  0  0  0999 V2000
   -9.4980    4.2270  -16.6540 C   0  0  0  0  0  0  0  0  0  0  0  0
   -7.3400    4.5130  -19.7150 N   0  0  0  0  0  0  0  0  0  0  0  0
   -4.7800    5.3310  -15.2080 O   0  0  0  0  0  0  0  0  0  0  0  0
   -8.3070    4.5090  -17.5250 C   0  0  0  0  0  0  0  0  0  0  0  0
   -7.0130    5.1020  -15.5640 N   0  0  0  0  0  0  0  0  0  0  0  0
   -8.1910    4.2590  -13.2070 O   0  0  0  0  0  0  0  0  0  0  0  0
   -8.3770    4.3040  -18.8880 C   0  0  0  0  0  0  0  0  0  0  0  0
   -7.4820    5.2400  -11.2810 N   0  0  0  0  0  0  0  0  0  0  0  0
   -6.1960    4.9270  -19.1680 C   0  0  0  0  0  0  0  0  0  0  0  0
   -9.7080    2.4630   -8.1980 N   0  0  0  0  0  0  0  0  0  0  0  0
   -6.0230    5.1410  -17.8280 C   0  0  0  0  0  0  0  0  0  0  0  0
   -7.0990    4.9340  -16.9760 C   0  0  0  0  0  0  0  0  0  0  0  0
   -5.9310    5.3260  -14.7820 C   0  0  0  0  0  0  0  0  0  0  0  0
   -6.2080    5.5680  -13.3280 C   0  0  0  0  0  0  0  0  0  0  0  0
   -5.2960    6.3190  -12.5750 C   0  0  0  0  0  0  0  0  0  0  0  0
   -5.5130    6.5560  -11.2110 C   0  0  0  0  0  0  0  0  0  0  0  0
   -6.5880    6.0210  -10.6020 C   0  0  0  0  0  0  0  0  0  0  0  0
   -8.6460    4.6880  -10.5530 C   0  0  0  0  0  0  0  0  0  0  0  0
   -8.1860    3.8550   -9.3530 C   0  0  0  0  0  0  0  0  0  0  0  0
   -7.9060    2.3770   -9.6690 C   0  0  0  0  0  0  0  0  0  0  0  0
   -8.5430    1.6460   -8.5190 C   0  0  0  0  0  0  0  0  0  0  0  0
   -9.1380    3.8140   -8.1550 C   0  0  0  0  0  0  0  0  0  0  0  0
   -7.3490    4.9800  -12.6560 C   0  0  0  0  0  0  0  0  0  0  0  0
  1  4  1  0  0  0  0
  2  9  4  0  0  0  0
  4  7  4  0  0  0  0
  4 12  4  0  0  0  0
  5 13  1  0  0  0  0
  2  7  4  0  0  0  0
  8 18  1  0  0  0  0
  8 23  4  0  0  0  0
  9 11  4  0  0  0  0
 10 22  1  0  0  0  0
 11 12  4  0  0  0  0
  5 12  1  0  0  0  0
  3 13  2  0  0  0  0
 13 14  1  0  0  0  0
 14 15  4  0  0  0  0
 14 23  4  0  0  0  0
 15 16  4  0  0  0  0
 16 17  4  0  0  0  0
  8 17  4  0  0  0  0
 18 19  1  0  0  0  0
 19 20  1  0  0  0  0
 19 22  1  0  0  0  0
 20 21  1  0  0  0  0
 10 21  1  0  0  0  0
  6 23  2  0  0  0  0
M  END
>  <pdb_header>
HEADER    ----                                    23-FEB-23                     
TITLE     ---                                                                   
EXPDTA    X-RAY DIFFRACTION                                                     
REMARK --------------------- added by autoBUSTER ---------------------------------START
REMARK run at   = Fri Jan 19 13:16:32 GMT 2024
REMARK     in   = /dls/labxchem/data/lb32627/lb32627-65/processing/analysis/model_building/XX01ZVNS2B-x2439
REMARK     user = xau79897
REMARK     cmd  = \
REMARK            /dls_sw/apps/GPhL/BUSTER/20230726/autoBUSTER/bin/linux64/refine \
REMARK            -p \
REMARK            /dls/labxchem/data/lb32627/lb32627-65/processing/analysis/model_building/XX01ZVNS2B-x2439/cootOut/Refi
REMARK            -m \
REMARK            /dls/labxchem/data/lb32627/lb32627-65/processing/analysis/model_building/XX01ZVNS2B-x2439/XX01ZVNS2B-x
REMARK            -l \
REMARK            /dls/labxchem/data/lb32627/lb32627-65/processing/analysis/model_building/XX01ZVNS2B-x2439/ASAP-0015487
REMARK            -autoncs -M TLSbasic -B user -Gelly gelly.dat \
REMARK            StopOnGellySanityCheckError=no -d Refine_5
REMARK Files used:
REMARK   PDB              = Refine_5/pdbchk.pdb
REMARK   MTZ              = /dls/labxchem/data/lb32627/lb32627-65/processing/analysis/model_building/XX01ZVNS2B-x2439/XX
REMARK   Gelly commands       = /dls/labxchem/data/lb32627/lb32627-65/processing/analysis/model_building/XX01ZVNS2B-x243
REMARK output written to subdirectory = Refine_5
REMARK best refinement for F,SIGF with R/Rfree 0.2387/0.2888
REMARK header records are copied from input PDB file (apart from REMARK 3!)
REMARK --------------------- added by autoBUSTER -----------------------------------END
REMARK --------------------- added by autoBUSTER -------------------------------
REMARK run at   = Thu Dec 21 12:15:37 GMT 2023                                  
REMARK     in   = /dls/labxchem/data/lb32627/lb32627-65/processing/analysis/mode
REMARK     user = kyf22269                                                      
REMARK     cmd  = \                                                             
REMARK            /dls_sw/apps/GPhL/BUSTER/20211020/autoBUSTER/bin/linux64/refin
REMARK            -p \                                                          
REMARK            /dls/labxchem/data/lb32627/lb32627-65/processing/analysis/mode
REMARK            -m \                                                          
REMARK            /dls/labxchem/data/lb32627/lb32627-65/processing/analysis/mode
REMARK            -l \                                                          
REMARK            /dls/labxchem/data/lb32627/lb32627-65/processing/analysis/mode
REMARK            -autoncs -M TLSbasic -B user -Gelly gelly.dat -d Refine_4     
REMARK Files used:                                                              
REMARK   PDB              = Refine_4/pdbchk.pdb                                 
REMARK   MTZ              = /dls/labxchem/data/lb32627/lb32627-65/processing/ana
REMARK   Gelly commands       = /dls/labxchem/data/lb32627/lb32627-65/processing
REMARK output written to subdirectory = Refine_4                                
REMARK best refinement for F,SIGF with R/Rfree 0.2443/0.2896                    
REMARK header records are copied from input PDB file (apart from REMARK 3!)     
REMARK --------------------- added by autoBUSTER -------------------------------
REMARK --------------------- added by autoBUSTER -------------------------------
REMARK run at   = Wed Dec 20 18:10:12 GMT 2023                                  
REMARK     in   = /dls/labxchem/data/lb32627/lb32627-65/processing/analysis/mode
REMARK     user = kyf22269                                                      
REMARK     cmd  = \                                                             
REMARK            /dls_sw/apps/GPhL/BUSTER/20211020/autoBUSTER/bin/linux64/refin
REMARK            -p \                                                          
REMARK            /dls/labxchem/data/lb32627/lb32627-65/processing/analysis/mode
REMARK            -m \                                                          
REMARK            /dls/labxchem/data/lb32627/lb32627-65/processing/analysis/mode
REMARK            -l \                                                          
REMARK            /dls/labxchem/data/lb32627/lb32627-65/processing/analysis/mode
REMARK            -autoncs -M TLSbasic -B user -Gelly gelly.dat -d Refine_3     
REMARK Files used:                                                              
REMARK   PDB              = Refine_3/pdbchk.pdb                                 
REMARK   MTZ              = /dls/labxchem/data/lb32627/lb32627-65/processing/ana
REMARK   Gelly commands       = /dls/labxchem/data/lb32627/lb32627-65/processing
REMARK output written to subdirectory = Refine_3                                
REMARK best refinement for F,SIGF with R/Rfree 0.2431/0.2923                    
REMARK header records are copied from input PDB file (apart from REMARK 3!)     
REMARK --------------------- added by autoBUSTER -------------------------------
REMARK --------------------- added by autoBUSTER -------------------------------
REMARK run at   = Wed Dec 20 11:24:05 GMT 2023                                  
REMARK     in   = /dls/labxchem/data/lb32627/lb32627-65/processing/analysis/mode
REMARK     user = kyf22269                                                      
REMARK     cmd  = \                                                             
REMARK            /dls_sw/apps/GPhL/BUSTER/20211020/autoBUSTER/bin/linux64/refin
REMARK            -p \                                                          
REMARK            /dls/labxchem/data/lb32627/lb32627-65/processing/analysis/mode
REMARK            -m \                                                          
REMARK            /dls/labxchem/data/lb32627/lb32627-65/processing/analysis/mode
REMARK            -l \                                                          
REMARK            /dls/labxchem/data/lb32627/lb32627-65/processing/analysis/mode
REMARK            -autoncs -M TLSbasic -d Refine_2                              
REMARK Files used:                                                              
REMARK   PDB              = Refine_2/pdbchk.pdb                                 
REMARK   MTZ              = /dls/labxchem/data/lb32627/lb32627-65/processing/ana
REMARK output written to subdirectory = Refine_2                                
REMARK best refinement for F,SIGF with R/Rfree 0.2541/0.2861                    
REMARK header records are copied from input PDB file (apart from REMARK 3!)     
REMARK --------------------- added by autoBUSTER -------------------------------
REMARK --------------------- added by autoBUSTER -------------------------------
REMARK run at   = Mon Dec 18 15:19:08 GMT 2023                                  
REMARK     in   = /dls/labxchem/data/lb32627/lb32627-65/processing/analysis/mode
REMARK     user = kyf22269                                                      
REMARK     cmd  = \                                                             
REMARK            /dls_sw/apps/GPhL/BUSTER/20211020/autoBUSTER/bin/linux64/refin
REMARK            -p \                                                          
REMARK            /dls/labxchem/data/lb32627/lb32627-65/processing/analysis/mode
REMARK            -m \                                                          
REMARK            /dls/labxchem/data/lb32627/lb32627-65/processing/analysis/mode
REMARK            -l \                                                          
REMARK            /dls/labxchem/data/lb32627/lb32627-65/processing/analysis/mode
REMARK            -autoncs -M TLSbasic StopOnGellySanityCheckError=no -d \      
REMARK            Refine_1                                                      
REMARK Files used:                                                              
REMARK   PDB              = Refine_1/pdbchk.pdb                                 
REMARK   MTZ              = /dls/labxchem/data/lb32627/lb32627-65/processing/ana
REMARK output written to subdirectory = Refine_1                                
REMARK best refinement for F,SIGF with R/Rfree 0.2402/0.2894                    
REMARK header records are copied from input PDB file (apart from REMARK 3!)     
REMARK --------------------- added by autoBUSTER -------------------------------
REMARK   2                                                            
REMARK   2 RESOLUTION.    1.66 ANGSTROMS.
REMARK   3
REMARK   3 REFINEMENT.
REMARK   3   PROGRAM     : BUSTER 2.10.4 (26-JUL-2023)
REMARK   3   AUTHORS     : BRICOGNE,BLANC,BRANDL,FLENSBURG,KELLER,
REMARK   3               : PACIOREK,ROVERSI,SHARFF,SMART,VONRHEIN,WOMACK;
REMARK   3               : MATTHEWS,TEN EYCK,TRONRUD
REMARK   3
REMARK   3  DATA USED IN REFINEMENT.
REMARK   3   RESOLUTION RANGE HIGH (ANGSTROMS) : 1.664
REMARK   3   RESOLUTION RANGE LOW  (ANGSTROMS) : 23.11
REMARK   3   DATA CUTOFF            (SIGMA(F)) : 0.000
REMARK   3   COMPLETENESS FOR RANGE        (%) : 79.9
REMARK   3   NUMBER OF REFLECTIONS             : 19666
REMARK   3
REMARK   3  FIT TO DATA USED IN REFINEMENT.
REMARK   3   CROSS-VALIDATION METHOD          : THROUGHOUT
REMARK   3   FREE R VALUE TEST SET SELECTION  : RANDOM
REMARK   3   R VALUE     (WORKING + TEST SET) : 0.2412
REMARK   3   R VALUE            (WORKING SET) : 0.2387
REMARK   3   FREE R VALUE                     : 0.2888
REMARK   3   FREE R VALUE TEST SET SIZE   (%) : 5.030
REMARK   3   FREE R VALUE TEST SET COUNT      : 990
REMARK   3   ESTIMATED ERROR OF FREE R VALUE  : NULL
REMARK   3
REMARK   3  FIT IN THE HIGHEST RESOLUTION BIN.
REMARK   3   TOTAL NUMBER OF BINS USED           : 50
REMARK   3   BIN RESOLUTION RANGE HIGH       (A) : 1.66
REMARK   3   BIN RESOLUTION RANGE LOW        (A) : 1.79
REMARK   3   BIN COMPLETENESS (WORKING+TEST) (%) : 8.60
REMARK   3   REFLECTIONS IN BIN   (WORKING+TEST) : 402
REMARK   3   BIN R VALUE          (WORKING+TEST) : 0.5816
REMARK   3   REFLECTIONS IN BIN    (WORKING SET) : 376
REMARK   3   BIN R VALUE           (WORKING SET) : 0.5810
REMARK   3   BIN FREE R VALUE                    : 0.5895
REMARK   3   BIN FREE R VALUE TEST SET SIZE  (%) : 6.47
REMARK   3   BIN FREE R VALUE TEST SET COUNT     : 26
REMARK   3   ESTIMATED ERROR OF BIN FREE R VALUE : NULL
REMARK   3
REMARK   3  NUMBER OF NON-HYDROGEN ATOMS USED IN REFINEMENT.
REMARK   3   PROTEIN ATOMS            : 1472
REMARK   3   NUCLEIC ACID ATOMS       : 0
REMARK   3   HETEROGEN ATOMS          : 45
REMARK   3   SOLVENT ATOMS            : 65
REMARK   3
REMARK   3  B VALUES.
REMARK   3   FROM WILSON PLOT           (A**2) : 44.80
REMARK   3   MEAN B VALUE      (OVERALL, A**2) : 73.67
REMARK   3   OVERALL ANISOTROPIC B VALUE.
REMARK   3    B11 (A**2) : -7.08120
REMARK   3    B22 (A**2) : -7.08120
REMARK   3    B33 (A**2) : 14.16230
REMARK   3    B12 (A**2) : 0.00000
REMARK   3    B13 (A**2) : 0.00000
REMARK   3    B23 (A**2) : 0.00000
REMARK   3
REMARK   3  ESTIMATED COORDINATE ERROR.
REMARK   3   ESD FROM LUZZATI PLOT                    (A) : 0.40
REMARK   3   DPI (BLOW EQ-10) BASED ON R VALUE        (A) : 0.156
REMARK   3   DPI (BLOW EQ-9) BASED ON FREE R VALUE    (A) : 0.152
REMARK   3   DPI (CRUICKSHANK) BASED ON R VALUE       (A) : 0.149
REMARK   3   DPI (CRUICKSHANK) BASED ON FREE R VALUE  (A) : 0.148
REMARK   3
REMARK   3   REFERENCES: BLOW, D. (2002) ACTA CRYST D58, 792-797
REMARK   3               CRUICKSHANK, D.W.J. (1999) ACTA CRYST D55, 583-601
REMARK   3
REMARK   3  CORRELATION COEFFICIENTS.
REMARK   3   CORRELATION COEFFICIENT FO-FC      : 0.946
REMARK   3   CORRELATION COEFFICIENT FO-FC FREE : 0.934
REMARK   3
REMARK   3  X-RAY WEIGHT : 7.31
REMARK   3
REMARK   3  GEOMETRY FUNCTION.                                                  
REMARK   3   RESTRAINT LIBRARIES.                                               
REMARK   3    NUMBER OF LIBRARIES USED :  10                                    
REMARK   3    LIBRARY  1 : protgeo_eh99.dat (V1.6.4.20) 20220523  STANDARD      
REMARK   3                 AMINO ACID DICTIONARY. BONDS AND ANGLES FROM         
REMARK   3                 ENGH AND HUBER EH99. OTHER VALUES BASED ON           
REMARK   3                 PREVIOUS TNT OR TAKEN FROM CCP4. INCLUDES            
REMARK   3                 HYDROGEN ATOMS.                                      
REMARK   3    LIBRARY  2 : exoticaa.dat (V1.3.4.16) 20220523  COLLECTION        
REMARK   3                 OF NON-STANDARD AMINO ACIDS, MAINLY EH91             
REMARK   3                 WITHOUT IDEAL DISTANCE INFO                          
REMARK   3    LIBRARY  3 : nuclgeo.dat (V1.13.4.9) 20221011                     
REMARK   3    LIBRARY  4 : bcorrel.dat (V1.15.10.2) 20190616                    
REMARK   3    LIBRARY  5 : contact.dat (V1.15.12.10) 20191121                   
REMARK   3    LIBRARY  6 : idealdist_contact.dat (V1.3.4.14) 20230724           
REMARK   3                 IDEAL-DISTANCE CONTACT TERM DATA AS USED IN          
REMARK   3                 PROLSQ. VALUES USED HERE ARE BASEd ON DATA           
REMARK   3                 HARVESTING OF PDB AS OF 20190109                     
REMARK   3    LIBRARY  7 : restraints for LIG from cif dictionary               
REMARK   3                 ASAP-0015487-001.cif                                 
REMARK   3    LIBRARY  8 : restraints for DMS (DIMETHYL SULFOXIDE) from         
REMARK   3                 cif dictionary DMS.cif; generated by grade2          
REMARK   3                 version 1.1.0a7 from                                 
REMARK   3                 PDB_chemical_components_definition_file              
REMARK   3                 ftp://ftp.ebi.ac.uk/pub/databases/msd/pdbechem_v     
REMARK   3                 2/D/DMS/DMS.cif using RDKit 2021.03.4                
REMARK   3                 ((DatabaseID PDB-DMS))                               
REMARK   3    LIBRARY  9 : restraints for SO4 (SULFATE ION) from cif            
REMARK   3                 dictionary SO4.cif; generated by grade2 version      
REMARK   3                 1.1.0a7 from                                         
REMARK   3                 PDB_chemical_components_definition_file              
REMARK   3                 ftp://ftp.ebi.ac.uk/pub/databases/msd/pdbechem_v     
REMARK   3                 2/S/SO4/SO4.cif using RDKit 2021.03.4                
REMARK   3                 ((DatabaseID PDB-SO4))                               
REMARK   3    LIBRARY 10 : assume.dat (V1.9.4.3) 20221011                       
REMARK   3                                                                      
REMARK   3   NUMBER OF GEOMETRIC FUNCTION TERMS DEFINED : 15                    
REMARK   3   TERM                          COUNT    WEIGHT   FUNCTION.          
REMARK   3    BOND LENGTHS              :   1581 ;   2.00 ;  HARMONIC           
REMARK   3    BOND ANGLES               :   2152 ;   2.00 ;  HARMONIC           
REMARK   3    TORSION ANGLES            :    539 ;   2.00 ;  SINUSOIDAL         
REMARK   3    TRIGONAL CARBON PLANES    :   NULL ;   NULL ;  NULL               
REMARK   3    GENERAL PLANES            :    270 ;   5.00 ;  HARMONIC           
REMARK   3    ISOTROPIC THERMAL FACTORS :   1556 ;  10.00 ;  HARMONIC           
REMARK   3    BAD NON-BONDED CONTACTS   :   NULL ;   NULL ;  NULL               
REMARK   3    IMPROPER TORSIONS         :   NULL ;   NULL ;  NULL               
REMARK   3    PSEUDOROTATION ANGLES     :   NULL ;   NULL ;  NULL               
REMARK   3    CHIRAL IMPROPER TORSION   :    197 ;   5.00 ;  SEMIHARMONIC       
REMARK   3    SUM OF OCCUPANCIES        :   NULL ;   NULL ;  NULL               
REMARK   3    UTILITY DISTANCES         :   NULL ;   NULL ;  NULL               
REMARK   3    UTILITY ANGLES            :   NULL ;   NULL ;  NULL               
REMARK   3    UTILITY TORSION           :   NULL ;   NULL ;  NULL               
REMARK   3    IDEAL-DIST CONTACT TERM   :   1192 ;   4.00 ;  SEMIHARMONIC       
REMARK   3                                                                      
REMARK   3   RMS DEVIATIONS FROM IDEAL VALUES.                                  
REMARK   3   BOND LENGTHS                       (A) : 0.009                     
REMARK   3   BOND ANGLES                  (DEGREES) : 1.06                      
REMARK   3   PEPTIDE OMEGA TORSION ANGLES (DEGREES) : 3.51                      
REMARK   3   OTHER TORSION ANGLES         (DEGREES) : 17.84                     
REMARK   3                                                                      
REMARK   3   SIMILARITY.                                                        
REMARK   3    NCS.                                                              
REMARK   3     NCS METHOD: NONE                                                 
REMARK   3    TARGET RESTRAINTS.                                                
REMARK   3     TARGET REPRESENTATION : NONE                                     
REMARK   3     TARGET STRUCTURE : NULL                                          
REMARK   3                                                                      
REMARK   3  TLS DETAILS.                                                        
REMARK   3   NUMBER OF TLS GROUPS  :            2                               
REMARK   3                                                                      
REMARK   3   TLS GROUP :            1                                           
REMARK   3    SET : { A|* }                                                     
REMARK   3    ORIGIN FOR THE GROUP (A):  -13.8011   -1.9101  -19.3981           
REMARK   3    T TENSOR                                                          
REMARK   3     T11:   -0.0029 T22:   -0.2733                                    
REMARK   3     T33:   -0.3139 T12:    0.2210                                    
REMARK   3     T13:    0.2144 T23:    0.1895                                    
REMARK   3    L TENSOR                                                          
REMARK   3     L11:    7.7665 L22:    6.4381                                    
REMARK   3     L33:    8.0464 L12:   -2.9132                                    
REMARK   3     L13:    0.8404 L23:    2.3124                                    
REMARK   3    S TENSOR                                                          
REMARK   3     S11:    0.6275 S12:    0.5962 S13:    0.2578                     
REMARK   3     S21:   -0.7566 S22:   -0.4610 S23:   -0.4542                     
REMARK   3     S31:   -0.2325 S32:    0.6623 S33:   -0.1664                     
REMARK   3                                                                      
REMARK   3   TLS GROUP :            2                                           
REMARK   3    SET : { B|* }                                                     
REMARK   3    ORIGIN FOR THE GROUP (A):  -18.4402    0.5124  -15.7763           
REMARK   3    T TENSOR                                                          
REMARK   3     T11:    0.2179 T22:    0.1396                                    
REMARK   3     T33:   -0.0915 T12:    0.2859                                    
REMARK   3     T13:    0.0647 T23:    0.0478                                    
REMARK   3    L TENSOR                                                          
REMARK   3     L11:    1.7917 L22:    2.2073                                    
REMARK   3     L33:    2.4656 L12:   -1.4066                                    
REMARK   3     L13:    0.9347 L23:   -0.1369                                    
REMARK   3    S TENSOR                                                          
REMARK   3     S11:    0.5373 S12:    0.2217 S13:    0.1883                     
REMARK   3     S21:   -0.3362 S22:   -0.5166 S23:    0.0143                     
REMARK   3     S31:    0.0210 S32:    0.2185 S33:   -0.0206                     
REMARK   3                                                                      
REMARK   3  REFINEMENT NOTES.                                                   
REMARK   3   NUMBER OF REFINEMENT NOTES :   1                                   
REMARK   3   NOTE   1 : IDEAL-DIST CONTACT TERM CONTACT SETUP. ALL ATOMS        
REMARK   3               HAVE CCP4 ATOM TYPE FROM LIBRARY                       
REMARK   3
REMARK   3  OTHER REFINEMENT REMARKS: NULL
REMARK   3
REMARK 290                                                            
REMARK 290 CRYSTALLOGRAPHIC SYMMETRY                                  
REMARK 290 SYMMETRY OPERATORS FOR SPACE GROUP: P 43 2 2               
REMARK 290                                                            
REMARK 290      SYMOP   SYMMETRY                                      
REMARK 290     NNNMMM   OPERATOR                                      
REMARK 290       1555   X,Y,Z                                         
REMARK 290       2555   -X,-Y,1/2+Z                                   
REMARK 290       3555   -Y,X,3/4+Z                                    
REMARK 290       4555   Y,-X,1/4+Z                                    
REMARK 290       5555   -X,Y,-Z                                       
REMARK 290       6555   X,-Y,1/2-Z                                    
REMARK 290       7555   Y,X,1/4-Z                                     
REMARK 290       8555   -Y,-X,3/4-Z                                   
REMARK 290                                                            
REMARK 290     WHERE NNN -> OPERATOR NUMBER                           
REMARK 290           MMM -> TRANSLATION VECTOR                        
REMARK 290                                                            
REMARK 290 CRYSTALLOGRAPHIC SYMMETRY TRANSFORMATIONS                  
REMARK 290 THE FOLLOWING TRANSFORMATIONS OPERATE ON THE ATOM/HETATM   
REMARK 290 RECORDS IN THIS ENTRY TO PRODUCE CRYSTALLOGRAPHICALLY      
REMARK 290 RELATED MOLECULES.                                         
REMARK 290   SMTRY1   1  1.000000  0.000000  0.000000        0.00000
REMARK 290   SMTRY2   1  0.000000  1.000000  0.000000        0.00000
REMARK 290   SMTRY3   1  0.000000  0.000000  1.000000        0.00000
REMARK 290   SMTRY1   2 -1.000000  0.000000  0.000000        0.00000
REMARK 290   SMTRY2   2  0.000000 -1.000000  0.000000        0.00000
REMARK 290   SMTRY3   2  0.000000  0.000000  1.000000      107.99900
REMARK 290   SMTRY1   3  0.000000 -1.000000  0.000000        0.00000
REMARK 290   SMTRY2   3  1.000000  0.000000  0.000000        0.00000
REMARK 290   SMTRY3   3  0.000000  0.000000  1.000000      161.99850
REMARK 290   SMTRY1   4  0.000000  1.000000  0.000000        0.00000
REMARK 290   SMTRY2   4 -1.000000  0.000000  0.000000        0.00000
REMARK 290   SMTRY3   4  0.000000  0.000000  1.000000       53.99950
REMARK 290   SMTRY1   5 -1.000000  0.000000  0.000000        0.00000
REMARK 290   SMTRY2   5  0.000000  1.000000  0.000000        0.00000
REMARK 290   SMTRY3   5  0.000000  0.000000 -1.000000        0.00000
REMARK 290   SMTRY1   6  1.000000  0.000000  0.000000        0.00000
REMARK 290   SMTRY2   6  0.000000 -1.000000  0.000000        0.00000
REMARK 290   SMTRY3   6  0.000000  0.000000 -1.000000      107.99900
REMARK 290   SMTRY1   7  0.000000  1.000000  0.000000        0.00000
REMARK 290   SMTRY2   7  1.000000  0.000000  0.000000        0.00000
REMARK 290   SMTRY3   7  0.000000  0.000000 -1.000000       53.99950
REMARK 290   SMTRY1   8  0.000000 -1.000000  0.000000        0.00000
REMARK 290   SMTRY2   8 -1.000000  0.000000  0.000000        0.00000
REMARK 290   SMTRY3   8  0.000000  0.000000 -1.000000      161.99850
REMARK 290                                                            
REMARK 290 REMARK: NULL                                               
CRYST1   42.638   42.638  215.998  90.00  90.00  90.00 P 43 2 2                 


$$$$
Zx2439a_ligand
  PyMOL3.0          3D                             0

 23 25  0  0  0  0  0  0  0  0999 V2000
   -9.4980    4.2270  -16.6540 C   0  0  0  0  0  0  0  0  0  0  0  0
   -7.3400    4.5130  -19.7150 N   0  0  0  0  0  0  0  0  0  0  0  0
   -4.7800    5.3310  -15.2080 O   0  0  0  0  0  0  0  0  0  0  0  0
   -8.3070    4.5090  -17.5250 C   0  0  0  0  0  0  0  0  0  0  0  0
   -7.0130    5.1020  -15.5640 N   0  0  0  0  0  0  0  0  0  0  0  0
   -8.1910    4.2590  -13.2070 O   0  0  0  0  0  0  0  0  0  0  0  0
   -8.3770    4.3040  -18.8880 C   0  0  0  0  0  0  0  0  0  0  0  0
   -7.4820    5.2400  -11.2810 N   0  0  0  0  0  0  0  0  0  0  0  0
   -6.1960    4.9270  -19.1680 C   0  0  0  0  0  0  0  0  0  0  0  0
   -9.7080    2.4630   -8.1980 N   0  0  0  0  0  0  0  0  0  0  0  0
   -6.0230    5.1410  -17.8280 C   0  0  0  0  0  0  0  0  0  0  0  0
   -7.0990    4.9340  -16.9760 C   0  0  0  0  0  0  0  0  0  0  0  0
   -5.9310    5.3260  -14.7820 C   0  0  0  0  0  0  0  0  0  0  0  0
   -6.2080    5.5680  -13.3280 C   0  0  0  0  0  0  0  0  0  0  0  0
   -5.2960    6.3190  -12.5750 C   0  0  0  0  0  0  0  0  0  0  0  0
   -5.5130    6.5560  -11.2110 C   0  0  0  0  0  0  0  0  0  0  0  0
   -6.5880    6.0210  -10.6020 C   0  0  0  0  0  0  0  0  0  0  0  0
   -8.6460    4.6880  -10.5530 C   0  0  0  0  0  0  0  0  0  0  0  0
   -8.1860    3.8550   -9.3530 C   0  0  0  0  0  0  0  0  0  0  0  0
   -7.9060    2.3770   -9.6690 C   0  0  0  0  0  0  0  0  0  0  0  0
   -8.5430    1.6460   -8.5190 C   0  0  0  0  0  0  0  0  0  0  0  0
   -9.1380    3.8140   -8.1550 C   0  0  0  0  0  0  0  0  0  0  0  0
   -7.3490    4.9800  -12.6560 C   0  0  0  0  0  0  0  0  0  0  0  0
  1  4  1  0  0  0  0
  2  9  4  0  0  0  0
  4  7  4  0  0  0  0
  4 12  4  0  0  0  0
  5 13  1  0  0  0  0
  2  7  4  0  0  0  0
  8 18  1  0  0  0  0
  8 23  4  0  0  0  0
  9 11  4  0  0  0  0
 10 22  1  0  0  0  0
 11 12  4  0  0  0  0
  5 12  1  0  0  0  0
  3 13  2  0  0  0  0
 13 14  1  0  0  0  0
 14 15  4  0  0  0  0
 14 23  4  0  0  0  0
 15 16  4  0  0  0  0
 16 17  4  0  0  0  0
  8 17  4  0  0  0  0
 18 19  1  0  0  0  0
 19 20  1  0  0  0  0
 19 22  1  0  0  0  0
 20 21  1  0  0  0  0
 10 21  1  0  0  0  0
  6 23  2  0  0  0  0
M  END
>  <pdb_header>
COMPND    XX01ZVNS2B-x2439_B_301_XX01ZVNS2B-x1291+B+301+1


$$$$
Zx2500a
  PyMOL3.0          3D                             0

 27 30  0  0  0  0  0  0  0  0999 V2000
   -3.0420    4.1160  -14.4630 C   0  0  0  0  0  0  0  0  0  0  0  0
   -7.8600    5.9560   -9.1350 N   0  0  0  0  0  0  0  0  0  0  0  0
   -4.2680    3.9890  -13.7190 O   0  0  0  0  0  0  0  0  0  0  0  0
   -5.4230    4.4160  -14.2700 C   0  0  0  0  0  0  0  0  0  0  0  0
   -8.6420    3.9310   -8.3180 N   0  0  0  0  0  0  0  0  0  0  0  0
   -6.5290    4.4120  -13.4510 C   0  0  0  0  0  0  0  0  0  0  0  0
   -8.0610    1.8390   -6.6010 N   0  0  0  0  0  0  0  0  0  0  0  0
   -7.7430    4.8130  -13.9830 C   0  0  0  0  0  0  0  0  0  0  0  0
   -7.8440    5.1620  -15.2690 N   0  0  0  0  0  0  0  0  0  0  0  0
   -8.9920    4.9120  -13.1450 C   0  0  0  0  0  0  0  0  0  0  0  0
   -6.8270    5.4600  -17.3240 N   0  0  0  0  0  0  0  0  0  0  0  0
   -8.6070    5.2870  -11.7300 C   0  0  0  0  0  0  0  0  0  0  0  0
   -6.6450    4.9750  -20.0990 N   0  0  0  0  0  0  0  0  0  0  0  0
   -8.0520    6.5250  -11.4480 C   0  0  0  0  0  0  0  0  0  0  0  0
   -5.5180    4.7350  -15.5590 N   0  0  0  0  0  0  0  0  0  0  0  0
   -7.6930    6.8170  -10.1520 C   0  0  0  0  0  0  0  0  0  0  0  0
   -8.3930    4.7450   -9.3920 C   0  0  0  0  0  0  0  0  0  0  0  0
   -9.4990    2.7510   -8.4250 C   0  0  0  0  0  0  0  0  0  0  0  0
   -8.8690    1.5280   -7.7850 C   0  0  0  0  0  0  0  0  0  0  0  0
   -8.4550    3.1070   -5.9910 C   0  0  0  0  0  0  0  0  0  0  0  0
   -8.1850    4.2430   -6.9580 C   0  0  0  0  0  0  0  0  0  0  0  0
   -8.7870    4.3910  -10.6920 C   0  0  0  0  0  0  0  0  0  0  0  0
   -6.7210    5.1450  -16.0190 C   0  0  0  0  0  0  0  0  0  0  0  0
   -8.0690    5.2750  -18.0750 C   0  0  0  0  0  0  0  0  0  0  0  0
   -7.8090    4.4870  -19.3440 C   0  0  0  0  0  0  0  0  0  0  0  0
   -6.0750    6.2090  -19.5520 C   0  0  0  0  0  0  0  0  0  0  0  0
   -5.7230    6.0490  -18.0840 C   0  0  0  0  0  0  0  0  0  0  0  0
  1  3  1  0  0  0  0
  2 17  4  0  0  0  0
  3  4  1  0  0  0  0
  4  6  4  0  0  0  0
  4 15  4  0  0  0  0
  5 18  1  0  0  0  0
  5 21  1  0  0  0  0
  6  8  4  0  0  0  0
  7 20  1  0  0  0  0
  8  9  4  0  0  0  0
  8 10  1  0  0  0  0
  9 23  4  0  0  0  0
 10 12  1  0  0  0  0
 11 24  1  0  0  0  0
 11 27  1  0  0  0  0
 12 14  4  0  0  0  0
 12 22  4  0  0  0  0
 13 26  1  0  0  0  0
 14 16  4  0  0  0  0
  2 16  4  0  0  0  0
  5 17  1  0  0  0  0
 17 22  4  0  0  0  0
 18 19  1  0  0  0  0
  7 19  1  0  0  0  0
 20 21  1  0  0  0  0
 11 23  1  0  0  0  0
 15 23  4  0  0  0  0
 24 25  1  0  0  0  0
 13 25  1  0  0  0  0
 26 27  1  0  0  0  0
M  END
>  <pdb_header>
HEADER    ----                                    23-FEB-23                     
TITLE     ---                                                                   
EXPDTA    X-RAY DIFFRACTION                                                     
REMARK --------------------- added by autoBUSTER ---------------------------------START
REMARK run at   = Wed Dec 20 18:13:13 GMT 2023
REMARK     in   = /dls/labxchem/data/lb32627/lb32627-65/processing/analysis/model_building/XX01ZVNS2B-x2500
REMARK     user = kyf22269
REMARK     cmd  = \
REMARK            /dls_sw/apps/GPhL/BUSTER/20211020/autoBUSTER/bin/linux64/refine \
REMARK            -p \
REMARK            /dls/labxchem/data/lb32627/lb32627-65/processing/analysis/model_building/XX01ZVNS2B-x2500/cootOut/Refi
REMARK            -m \
REMARK            /dls/labxchem/data/lb32627/lb32627-65/processing/analysis/model_building/XX01ZVNS2B-x2500/XX01ZVNS2B-x
REMARK            -l \
REMARK            /dls/labxchem/data/lb32627/lb32627-65/processing/analysis/model_building/XX01ZVNS2B-x2500/ASAP-0015442
REMARK            -autoncs -M TLSbasic -d Refine_3
REMARK Files used:
REMARK   PDB              = Refine_3/pdbchk.pdb
REMARK   MTZ              = /dls/labxchem/data/lb32627/lb32627-65/processing/analysis/model_building/XX01ZVNS2B-x2500/XX
REMARK output written to subdirectory = Refine_3
REMARK best refinement for F,SIGF with R/Rfree 0.2276/0.2922
REMARK header records are copied from input PDB file (apart from REMARK 3!)
REMARK --------------------- added by autoBUSTER -----------------------------------END
REMARK --------------------- added by autoBUSTER -------------------------------
REMARK run at   = Wed Dec 20 11:34:49 GMT 2023                                  
REMARK     in   = /dls/labxchem/data/lb32627/lb32627-65/processing/analysis/mode
REMARK     user = kyf22269                                                      
REMARK     cmd  = \                                                             
REMARK            /dls_sw/apps/GPhL/BUSTER/20211020/autoBUSTER/bin/linux64/refin
REMARK            -p \                                                          
REMARK            /dls/labxchem/data/lb32627/lb32627-65/processing/analysis/mode
REMARK            -m \                                                          
REMARK            /dls/labxchem/data/lb32627/lb32627-65/processing/analysis/mode
REMARK            -l \                                                          
REMARK            /dls/labxchem/data/lb32627/lb32627-65/processing/analysis/mode
REMARK            -autoncs -M TLSbasic -B user -Gelly gelly.dat -d Refine_2     
REMARK Files used:                                                              
REMARK   PDB              = Refine_2/pdbchk.pdb                                 
REMARK   MTZ              = /dls/labxchem/data/lb32627/lb32627-65/processing/ana
REMARK   Gelly commands       = /dls/labxchem/data/lb32627/lb32627-65/processing
REMARK output written to subdirectory = Refine_2                                
REMARK best refinement for F,SIGF with R/Rfree 0.2257/0.2983                    
REMARK header records are copied from input PDB file (apart from REMARK 3!)     
REMARK --------------------- added by autoBUSTER -------------------------------
REMARK --------------------- added by autoBUSTER -------------------------------
REMARK run at   = Mon Dec 18 15:19:10 GMT 2023                                  
REMARK     in   = /dls/labxchem/data/lb32627/lb32627-65/processing/analysis/mode
REMARK     user = kyf22269                                                      
REMARK     cmd  = \                                                             
REMARK            /dls_sw/apps/GPhL/BUSTER/20211020/autoBUSTER/bin/linux64/refin
REMARK            -p \                                                          
REMARK            /dls/labxchem/data/lb32627/lb32627-65/processing/analysis/mode
REMARK            -m \                                                          
REMARK            /dls/labxchem/data/lb32627/lb32627-65/processing/analysis/mode
REMARK            -l \                                                          
REMARK            /dls/labxchem/data/lb32627/lb32627-65/processing/analysis/mode
REMARK            -autoncs -M TLSbasic StopOnGellySanityCheckError=no -d \      
REMARK            Refine_1                                                      
REMARK Files used:                                                              
REMARK   PDB              = Refine_1/pdbchk.pdb                                 
REMARK   MTZ              = /dls/labxchem/data/lb32627/lb32627-65/processing/ana
REMARK output written to subdirectory = Refine_1                                
REMARK best refinement for F,SIGF with R/Rfree 0.2276/0.3025                    
REMARK header records are copied from input PDB file (apart from REMARK 3!)     
REMARK --------------------- added by autoBUSTER -------------------------------
REMARK   2                                                            
REMARK   2 RESOLUTION.    2.34 ANGSTROMS.
REMARK   3
REMARK   3 REFINEMENT.
REMARK   3   PROGRAM     : BUSTER 2.10.4 (20-OCT-2021)
REMARK   3   AUTHORS     : BRICOGNE,BLANC,BRANDL,FLENSBURG,KELLER,
REMARK   3               : PACIOREK,ROVERSI,SHARFF,SMART,VONRHEIN,WOMACK;
REMARK   3               : MATTHEWS,TEN EYCK,TRONRUD
REMARK   3
REMARK   3  DATA USED IN REFINEMENT.
REMARK   3   RESOLUTION RANGE HIGH (ANGSTROMS) : 2.337
REMARK   3   RESOLUTION RANGE LOW  (ANGSTROMS) : 54.23
REMARK   3   DATA CUTOFF            (SIGMA(F)) : 0.000
REMARK   3   COMPLETENESS FOR RANGE        (%) : 59.1
REMARK   3   NUMBER OF REFLECTIONS             : 5472
REMARK   3
REMARK   3  FIT TO DATA USED IN REFINEMENT.
REMARK   3   CROSS-VALIDATION METHOD          : THROUGHOUT
REMARK   3   FREE R VALUE TEST SET SELECTION  : RANDOM
REMARK   3   R VALUE     (WORKING + TEST SET) : 0.2308
REMARK   3   R VALUE            (WORKING SET) : 0.2276
REMARK   3   FREE R VALUE                     : 0.2922
REMARK   3   FREE R VALUE TEST SET SIZE   (%) : 4.920
REMARK   3   FREE R VALUE TEST SET COUNT      : 269
REMARK   3   ESTIMATED ERROR OF FREE R VALUE  : NULL
REMARK   3
REMARK   3  FIT IN THE HIGHEST RESOLUTION BIN.
REMARK   3   TOTAL NUMBER OF BINS USED           : 14
REMARK   3   BIN RESOLUTION RANGE HIGH       (A) : 2.34
REMARK   3   BIN RESOLUTION RANGE LOW        (A) : 2.70
REMARK   3   BIN COMPLETENESS (WORKING+TEST) (%) : 13.30
REMARK   3   REFLECTIONS IN BIN   (WORKING+TEST) : 421
REMARK   3   BIN R VALUE          (WORKING+TEST) : 0.2551
REMARK   3   REFLECTIONS IN BIN    (WORKING SET) : 401
REMARK   3   BIN R VALUE           (WORKING SET) : 0.2473
REMARK   3   BIN FREE R VALUE                    : 0.4078
REMARK   3   BIN FREE R VALUE TEST SET SIZE  (%) : 4.75
REMARK   3   BIN FREE R VALUE TEST SET COUNT     : 20
REMARK   3   ESTIMATED ERROR OF BIN FREE R VALUE : NULL
REMARK   3
REMARK   3  NUMBER OF NON-HYDROGEN ATOMS USED IN REFINEMENT.
REMARK   3   PROTEIN ATOMS            : 1476
REMARK   3   NUCLEIC ACID ATOMS       : 0
REMARK   3   HETEROGEN ATOMS          : 35
REMARK   3   SOLVENT ATOMS            : 39
REMARK   3
REMARK   3  B VALUES.
REMARK   3   FROM WILSON PLOT           (A**2) : 44.01
REMARK   3   MEAN B VALUE      (OVERALL, A**2) : 53.03
REMARK   3   OVERALL ANISOTROPIC B VALUE.
REMARK   3    B11 (A**2) : 8.82460
REMARK   3    B22 (A**2) : 8.82460
REMARK   3    B33 (A**2) : -17.64920
REMARK   3    B12 (A**2) : 0.00000
REMARK   3    B13 (A**2) : 0.00000
REMARK   3    B23 (A**2) : 0.00000
REMARK   3
REMARK   3  ESTIMATED COORDINATE ERROR.
REMARK   3   ESD FROM LUZZATI PLOT                    (A) : 0.43
REMARK   3   DPI (BLOW EQ-9) BASED ON FREE R VALUE    (A) : 0.450
REMARK   3
REMARK   3   REFERENCES: BLOW, D. (2002) ACTA CRYST D58, 792-797
REMARK   3
REMARK   3  CORRELATION COEFFICIENTS.
REMARK   3   CORRELATION COEFFICIENT FO-FC      : 0.873
REMARK   3   CORRELATION COEFFICIENT FO-FC FREE : 0.805
REMARK   3
REMARK   3  X-RAY WEIGHT : 10.00
REMARK   3
REMARK   3  GEOMETRY FUNCTION.                                                  
REMARK   3   RESTRAINT LIBRARIES.                                               
REMARK   3    NUMBER OF LIBRARIES USED :   9                                    
REMARK   3    LIBRARY  1 : protgeo_eh99.dat (V1.6.4.17) 20191001  STANDARD      
REMARK   3                 AMINO ACID DICTIONARY. BONDS AND ANGLES FROM         
REMARK   3                 ENGH AND HUBER EH99. OTHER VALUES BASED ON           
REMARK   3                 PREVIOUS TNT OR TAKEN FROM CCP4. INCLUDES            
REMARK   3                 HYDROGEN ATOMS.                                      
REMARK   3    LIBRARY  2 : exoticaa.dat (V1.3.4.15) 20200327  COLLECTION        
REMARK   3                 OF NON-STANDARD AMINO ACIDS, MAINLY EH91             
REMARK   3                 WITHOUT IDEAL DISTANCE INFO                          
REMARK   3    LIBRARY  3 : nuclgeo.dat (V1.13.4.8) 20190909                     
REMARK   3    LIBRARY  4 : bcorrel.dat (V1.15.10.2) 20190616                    
REMARK   3    LIBRARY  5 : contact.dat (V1.15.12.10) 20191121                   
REMARK   3    LIBRARY  6 : idealdist_contact.dat (V1.3.4.12) 20191001           
REMARK   3                 IDEAL-DISTANCE CONTACT TERM DATA AS USED IN          
REMARK   3                 PROLSQ. VALUES USED HERE ARE BASED ON DATA           
REMARK   3                 HARVESTING OF PDB AS OF 20190109.                    
REMARK   3    LIBRARY  7 : restraints for LIG from cif dictionary               
REMARK   3                 ASAP-0015442-001.cif                                 
REMARK   3    LIBRARY  8 : restraints for DMS (DIMETHYL SULFOXIDE) from         
REMARK   3                 cif dictionary DMS.cif; buster common-compounds      
REMARK   3                 v 2.0 (19 Dec 2011)                                  
REMARK   3    LIBRARY  9 : assume.dat (V1.9.4.2) 20180705                       
REMARK   3                                                                      
REMARK   3   NUMBER OF GEOMETRIC FUNCTION TERMS DEFINED : 15                    
REMARK   3   TERM                          COUNT    WEIGHT   FUNCTION.          
REMARK   3    BOND LENGTHS              :   1579 ;   2.00 ;  HARMONIC           
REMARK   3    BOND ANGLES               :   2148 ;   2.00 ;  HARMONIC           
REMARK   3    TORSION ANGLES            :    547 ;   2.00 ;  SINUSOIDAL         
REMARK   3    TRIGONAL CARBON PLANES    :   NULL ;   NULL ;  NULL               
REMARK   3    GENERAL PLANES            :    272 ;   5.00 ;  HARMONIC           
REMARK   3    ISOTROPIC THERMAL FACTORS :   1579 ;  10.00 ;  HARMONIC           
REMARK   3    BAD NON-BONDED CONTACTS   :   NULL ;   NULL ;  NULL               
REMARK   3    IMPROPER TORSIONS         :   NULL ;   NULL ;  NULL               
REMARK   3    PSEUDOROTATION ANGLES     :   NULL ;   NULL ;  NULL               
REMARK   3    CHIRAL IMPROPER TORSION   :    196 ;   5.00 ;  SEMIHARMONIC       
REMARK   3    SUM OF OCCUPANCIES        :   NULL ;   NULL ;  NULL               
REMARK   3    UTILITY DISTANCES         :   NULL ;   NULL ;  NULL               
REMARK   3    UTILITY ANGLES            :   NULL ;   NULL ;  NULL               
REMARK   3    UTILITY TORSION           :   NULL ;   NULL ;  NULL               
REMARK   3    IDEAL-DIST CONTACT TERM   :   1162 ;   4.00 ;  SEMIHARMONIC       
REMARK   3                                                                      
REMARK   3   RMS DEVIATIONS FROM IDEAL VALUES.                                  
REMARK   3   BOND LENGTHS                       (A) : 0.008                     
REMARK   3   BOND ANGLES                  (DEGREES) : 1.00                      
REMARK   3   PEPTIDE OMEGA TORSION ANGLES (DEGREES) : 2.89                      
REMARK   3   OTHER TORSION ANGLES         (DEGREES) : 20.08                     
REMARK   3                                                                      
REMARK   3   SIMILARITY.                                                        
REMARK   3    NCS.                                                              
REMARK   3     NCS METHOD: NONE                                                 
REMARK   3    TARGET RESTRAINTS.                                                
REMARK   3     TARGET REPRESENTATION : NONE                                     
REMARK   3     TARGET STRUCTURE : NULL                                          
REMARK   3                                                                      
REMARK   3  TLS DETAILS.                                                        
REMARK   3   NUMBER OF TLS GROUPS  :            2                               
REMARK   3                                                                      
REMARK   3   TLS GROUP :            1                                           
REMARK   3    SET : { A|* }                                                     
REMARK   3    ORIGIN FOR THE GROUP (A):  -13.8532   -2.0172  -19.4334           
REMARK   3    T TENSOR                                                          
REMARK   3     T11:   -0.0744 T22:    0.0284                                    
REMARK   3     T33:   -0.4773 T12:    0.2777                                    
REMARK   3     T13:    0.1598 T23:    0.0584                                    
REMARK   3    L TENSOR                                                          
REMARK   3     L11:    4.7030 L22:    5.4856                                    
REMARK   3     L33:    6.1006 L12:   -1.2954                                    
REMARK   3     L13:    2.2952 L23:   -0.0418                                    
REMARK   3    S TENSOR                                                          
REMARK   3     S11:    0.6225 S12:    0.5982 S13:    0.1434                     
REMARK   3     S21:   -0.5364 S22:   -0.4660 S23:   -0.4248                     
REMARK   3     S31:    0.0341 S32:    0.4307 S33:   -0.1565                     
REMARK   3                                                                      
REMARK   3   TLS GROUP :            2                                           
REMARK   3    SET : { B|* }                                                     
REMARK   3    ORIGIN FOR THE GROUP (A):  -18.3587    0.5083  -15.6088           
REMARK   3    T TENSOR                                                          
REMARK   3     T11:    0.2080 T22:    0.1298                                    
REMARK   3     T33:   -0.3771 T12:    0.2862                                    
REMARK   3     T13:    0.0327 T23:    0.0367                                    
REMARK   3    L TENSOR                                                          
REMARK   3     L11:    2.6514 L22:    1.9343                                    
REMARK   3     L33:    3.2242 L12:   -0.9111                                    
REMARK   3     L13:    1.1256 L23:   -0.4092                                    
REMARK   3    S TENSOR                                                          
REMARK   3     S11:    0.4852 S12:    0.3297 S13:    0.1564                     
REMARK   3     S21:   -0.1623 S22:   -0.4639 S23:    0.0470                     
REMARK   3     S31:    0.0866 S32:    0.1525 S33:   -0.0213                     
REMARK   3                                                                      
REMARK   3  REFINEMENT NOTES.                                                   
REMARK   3   NUMBER OF REFINEMENT NOTES :   1                                   
REMARK   3   NOTE   1 : IDEAL-DIST CONTACT TERM CONTACT SETUP. ALL ATOMS        
REMARK   3               HAVE CCP4 ATOM TYPE FROM LIBRARY                       
REMARK   3
REMARK   3  OTHER REFINEMENT REMARKS: NULL
REMARK   3
REMARK 290                                                            
REMARK 290 CRYSTALLOGRAPHIC SYMMETRY                                  
REMARK 290 SYMMETRY OPERATORS FOR SPACE GROUP: P 43 2 2               
REMARK 290                                                            
REMARK 290      SYMOP   SYMMETRY                                      
REMARK 290     NNNMMM   OPERATOR                                      
REMARK 290       1555   X,Y,Z                                         
REMARK 290       2555   -X,-Y,1/2+Z                                   
REMARK 290       3555   -Y,X,3/4+Z                                    
REMARK 290       4555   Y,-X,1/4+Z                                    
REMARK 290       5555   -X,Y,-Z                                       
REMARK 290       6555   X,-Y,1/2-Z                                    
REMARK 290       7555   Y,X,1/4-Z                                     
REMARK 290       8555   -Y,-X,3/4-Z                                   
REMARK 290                                                            
REMARK 290     WHERE NNN -> OPERATOR NUMBER                           
REMARK 290           MMM -> TRANSLATION VECTOR                        
REMARK 290                                                            
REMARK 290 CRYSTALLOGRAPHIC SYMMETRY TRANSFORMATIONS                  
REMARK 290 THE FOLLOWING TRANSFORMATIONS OPERATE ON THE ATOM/HETATM   
REMARK 290 RECORDS IN THIS ENTRY TO PRODUCE CRYSTALLOGRAPHICALLY      
REMARK 290 RELATED MOLECULES.                                         
REMARK 290   SMTRY1   1  1.000000  0.000000  0.000000        0.00000
REMARK 290   SMTRY2   1  0.000000  1.000000  0.000000        0.00000
REMARK 290   SMTRY3   1  0.000000  0.000000  1.000000        0.00000
REMARK 290   SMTRY1   2 -1.000000  0.000000  0.000000        0.00000
REMARK 290   SMTRY2   2  0.000000 -1.000000  0.000000        0.00000
REMARK 290   SMTRY3   2  0.000000  0.000000  1.000000      108.46500
REMARK 290   SMTRY1   3  0.000000 -1.000000  0.000000        0.00000
REMARK 290   SMTRY2   3  1.000000  0.000000  0.000000        0.00000
REMARK 290   SMTRY3   3  0.000000  0.000000  1.000000      162.69750
REMARK 290   SMTRY1   4  0.000000  1.000000  0.000000        0.00000
REMARK 290   SMTRY2   4 -1.000000  0.000000  0.000000        0.00000
REMARK 290   SMTRY3   4  0.000000  0.000000  1.000000       54.23250
REMARK 290   SMTRY1   5 -1.000000  0.000000  0.000000        0.00000
REMARK 290   SMTRY2   5  0.000000  1.000000  0.000000        0.00000
REMARK 290   SMTRY3   5  0.000000  0.000000 -1.000000        0.00000
REMARK 290   SMTRY1   6  1.000000  0.000000  0.000000        0.00000
REMARK 290   SMTRY2   6  0.000000 -1.000000  0.000000        0.00000
REMARK 290   SMTRY3   6  0.000000  0.000000 -1.000000      108.46500
REMARK 290   SMTRY1   7  0.000000  1.000000  0.000000        0.00000
REMARK 290   SMTRY2   7  1.000000  0.000000  0.000000        0.00000
REMARK 290   SMTRY3   7  0.000000  0.000000 -1.000000       54.23250
REMARK 290   SMTRY1   8  0.000000 -1.000000  0.000000        0.00000
REMARK 290   SMTRY2   8 -1.000000  0.000000  0.000000        0.00000
REMARK 290   SMTRY3   8  0.000000  0.000000 -1.000000      162.69750
REMARK 290                                                            
REMARK 290 REMARK: NULL                                               
CRYST1   42.647   42.647  216.930  90.00  90.00  90.00 P 43 2 2                 


$$$$
Zx2500a_ligand
  PyMOL3.0          3D                             0

 27 30  0  0  0  0  0  0  0  0999 V2000
   -3.0420    4.1160  -14.4630 C   0  0  0  0  0  0  0  0  0  0  0  0
   -7.8600    5.9560   -9.1350 N   0  0  0  0  0  0  0  0  0  0  0  0
   -4.2680    3.9890  -13.7190 O   0  0  0  0  0  0  0  0  0  0  0  0
   -5.4230    4.4160  -14.2700 C   0  0  0  0  0  0  0  0  0  0  0  0
   -8.6420    3.9310   -8.3180 N   0  0  0  0  0  0  0  0  0  0  0  0
   -6.5290    4.4120  -13.4510 C   0  0  0  0  0  0  0  0  0  0  0  0
   -8.0610    1.8390   -6.6010 N   0  0  0  0  0  0  0  0  0  0  0  0
   -7.7430    4.8130  -13.9830 C   0  0  0  0  0  0  0  0  0  0  0  0
   -7.8440    5.1620  -15.2690 N   0  0  0  0  0  0  0  0  0  0  0  0
   -8.9920    4.9120  -13.1450 C   0  0  0  0  0  0  0  0  0  0  0  0
   -6.8270    5.4600  -17.3240 N   0  0  0  0  0  0  0  0  0  0  0  0
   -8.6070    5.2870  -11.7300 C   0  0  0  0  0  0  0  0  0  0  0  0
   -6.6450    4.9750  -20.0990 N   0  0  0  0  0  0  0  0  0  0  0  0
   -8.0520    6.5250  -11.4480 C   0  0  0  0  0  0  0  0  0  0  0  0
   -5.5180    4.7350  -15.5590 N   0  0  0  0  0  0  0  0  0  0  0  0
   -7.6930    6.8170  -10.1520 C   0  0  0  0  0  0  0  0  0  0  0  0
   -8.3930    4.7450   -9.3920 C   0  0  0  0  0  0  0  0  0  0  0  0
   -9.4990    2.7510   -8.4250 C   0  0  0  0  0  0  0  0  0  0  0  0
   -8.8690    1.5280   -7.7850 C   0  0  0  0  0  0  0  0  0  0  0  0
   -8.4550    3.1070   -5.9910 C   0  0  0  0  0  0  0  0  0  0  0  0
   -8.1850    4.2430   -6.9580 C   0  0  0  0  0  0  0  0  0  0  0  0
   -8.7870    4.3910  -10.6920 C   0  0  0  0  0  0  0  0  0  0  0  0
   -6.7210    5.1450  -16.0190 C   0  0  0  0  0  0  0  0  0  0  0  0
   -8.0690    5.2750  -18.0750 C   0  0  0  0  0  0  0  0  0  0  0  0
   -7.8090    4.4870  -19.3440 C   0  0  0  0  0  0  0  0  0  0  0  0
   -6.0750    6.2090  -19.5520 C   0  0  0  0  0  0  0  0  0  0  0  0
   -5.7230    6.0490  -18.0840 C   0  0  0  0  0  0  0  0  0  0  0  0
  1  3  1  0  0  0  0
  2 17  4  0  0  0  0
  3  4  1  0  0  0  0
  4  6  4  0  0  0  0
  4 15  4  0  0  0  0
  5 18  1  0  0  0  0
  5 21  1  0  0  0  0
  6  8  4  0  0  0  0
  7 20  1  0  0  0  0
  8  9  4  0  0  0  0
  8 10  1  0  0  0  0
  9 23  4  0  0  0  0
 10 12  1  0  0  0  0
 11 24  1  0  0  0  0
 11 27  1  0  0  0  0
 12 14  4  0  0  0  0
 12 22  4  0  0  0  0
 13 26  1  0  0  0  0
 14 16  4  0  0  0  0
  2 16  4  0  0  0  0
  5 17  1  0  0  0  0
 17 22  4  0  0  0  0
 18 19  1  0  0  0  0
  7 19  1  0  0  0  0
 20 21  1  0  0  0  0
 11 23  1  0  0  0  0
 15 23  4  0  0  0  0
 24 25  1  0  0  0  0
 13 25  1  0  0  0  0
 26 27  1  0  0  0  0
M  END
>  <pdb_header>
COMPND    XX01ZVNS2B-x2500_B_301_XX01ZVNS2B-x1291+B+301+1


$$$$
