XX01ZVNS2B-x0701_B_301_XX01ZVNS2B-x1291+B+301+1
     RDKit          3D

 11 12  0  0  0  0  0  0  0  0999 V2000
   -3.9040    5.2260  -16.0910 N   0  0  0  0  0  0  0  0  0  0  0  0
   -4.7770    5.1620  -16.8330 C   0  0  0  0  0  0  0  0  0  0  0  0
   -5.9130    5.0500  -17.7290 C   0  0  0  0  0  0  0  0  0  0  0  0
   -7.2740    4.7740  -17.4170 C   0  0  0  0  0  0  0  0  0  0  0  0
   -7.9200    4.6670  -18.6600 C   0  0  0  0  0  0  0  0  0  0  0  0
   -6.9690    4.8860  -19.6070 N   0  0  0  0  0  0  0  0  0  0  0  0
   -5.7390    5.1280  -19.0530 N   0  0  0  0  0  0  0  0  0  0  0  0
   -8.0100    4.5550  -16.2580 C   0  0  0  0  0  0  0  0  0  0  0  0
   -9.3510    4.2190  -16.3550 C   0  0  0  0  0  0  0  0  0  0  0  0
   -9.9720    4.1150  -17.5910 C   0  0  0  0  0  0  0  0  0  0  0  0
   -9.2660    4.3430  -18.7580 C   0  0  0  0  0  0  0  0  0  0  0  0
  2  1  3  0
  3  2  1  0
  3  7  2  0
  7  6  1  0
  6  5  1  0
  5 11  2  0
 11 10  1  0
 10  9  2  0
  9  8  1  0
  8  4  2  0
  4  3  1  0
  5  4  1  0
M  END
