XX01ZVNS2B-x0693_B_301_XX01ZVNS2B-x1291+B+301+1
     RDKit          3D

 10 10  0  0  0  0  0  0  0  0999 V2000
   -9.5800    4.3410  -18.3620 O   0  0  0  0  0  0  0  0  0  0  0  0
   -9.0040    4.6120  -17.3050 C   0  0  0  0  0  0  0  0  0  0  0  0
   -9.4370    4.2290  -16.0820 N   0  0  0  0  0  0  0  0  0  0  0  0
   -8.5170    4.6650  -15.1330 N   0  0  0  0  0  0  0  0  0  0  0  0
   -7.7510    5.3350  -17.0970 C   0  0  0  0  0  0  0  0  0  0  0  0
   -7.5050    5.3190  -15.7280 C   0  0  0  0  0  0  0  0  0  0  0  0
   -6.3590    5.8590  -14.9360 C   0  0  0  0  0  0  0  0  0  0  0  0
   -6.9990    5.9650  -18.2340 C   0  0  0  0  0  0  0  0  0  0  0  0
   -6.3830    4.9570  -19.1520 C   0  0  0  0  0  0  0  0  0  0  0  0
   -6.9190    5.0790  -20.4580 O   0  0  0  0  0  0  0  0  0  0  0  0
  7  6  1  0
  6  4  1  0
  4  3  1  0
  3  2  1  0
  2  1  2  0
  5  2  1  0
  6  5  2  0
  8  5  1  0
  9  8  1  0
 10  9  1  0
M  END
