A71EV2A-x0278_A_201_1_A71EV2A-x0540+A+147+1
     RDKit          3D

 15 16  0  0  0  0  0  0  0  0999 V2000
   13.2220   20.7070   25.3810 O   0  0  0  0  0  0  0  0  0  0  0  0
   13.1210   22.0880   25.0290 S   0  0  0  0  0  0  0  0  0  0  0  0
   13.3310   22.4990   23.6760 O   0  0  0  0  0  0  0  0  0  0  0  0
   11.6150   22.5700   25.4390 N   0  0  0  0  0  0  0  0  0  0  0  0
   11.0070   23.7380   24.7690 C   0  0  0  0  0  0  0  0  0  0  0  0
    9.6810   23.8050   25.5070 C   0  0  0  0  0  0  0  0  0  0  0  0
   10.5940   21.5820   25.8380 C   0  0  0  0  0  0  0  0  0  0  0  0
    9.2690   22.3370   25.6770 C   0  0  1  0  0  0  0  0  0  0  0  0
    8.3880   22.0780   26.8200 N   0  0  0  0  0  0  0  0  0  0  0  0
   14.2260   22.9850   26.0660 C   0  0  0  0  0  0  0  0  0  0  0  0
   14.4500   22.5490   27.3640 C   0  0  0  0  0  0  0  0  0  0  0  0
   15.2370   23.3160   28.2090 C   0  0  0  0  0  0  0  0  0  0  0  0
   15.7900   24.4960   27.7670 C   0  0  0  0  0  0  0  0  0  0  0  0
   15.5690   24.9180   26.4740 C   0  0  0  0  0  0  0  0  0  0  0  0
   14.8000   24.1580   25.6050 C   0  0  0  0  0  0  0  0  0  0  0  0
  8  9  1  1
  8  6  1  0
  6  5  1  0
  5  4  1  0
  7  4  1  0
  8  7  1  0
  4  2  1  0
  3  2  2  0
  2  1  2  0
 10  2  1  0
 10 15  2  0
 15 14  1  0
 14 13  2  0
 13 12  1  0
 12 11  2  0
 11 10  1  0
M  END
