A71EV2A-x0333_A_201_1_A71EV2A-x0528+A+201+1
     RDKit          3D

 13 13  0  0  0  0  0  0  0  0999 V2000
   20.5830   19.9560   20.0030 O   0  0  0  0  0  0  0  0  0  0  0  0
   20.5270   21.3500   19.6850 S   0  0  0  0  0  0  0  0  0  0  0  0
   20.8910   21.7680   18.3680 O   0  0  0  0  0  0  0  0  0  0  0  0
   18.9040   21.9130   20.0170 C   0  0  0  0  0  0  0  0  0  0  0  0
   21.5130   22.1080   20.7120 N   0  0  0  0  0  0  0  0  0  0  0  0
   22.9380   21.8310   20.6530 C   0  0  0  0  0  0  0  0  0  0  0  0
   23.3450   20.8800   21.7390 C   0  0  0  0  0  0  0  0  0  0  0  0
   24.8460   20.8020   21.8030 C   0  0  0  0  0  0  0  0  0  0  0  0
   25.5470   21.4050   22.8340 C   0  0  0  0  0  0  0  0  0  0  0  0
   26.9300   21.4690   22.8040 C   0  0  0  0  0  0  0  0  0  0  0  0
   27.6270   20.9240   21.7460 C   0  0  0  0  0  0  0  0  0  0  0  0
   26.9440   20.2990   20.7310 C   0  0  0  0  0  0  0  0  0  0  0  0
   25.5620   20.2330   20.7620 C   0  0  0  0  0  0  0  0  0  0  0  0
  4  2  1  0
  3  2  2  0
  2  1  2  0
  5  2  1  0
  6  5  1  0
  7  6  1  0
  8  7  1  0
  8 13  2  0
 13 12  1  0
 12 11  2  0
 11 10  1  0
 10  9  2  0
  9  8  1  0
M  END
