A71EV2A-x1431_B_201_1_A71EV2A-x0526+A+147+1
     RDKit          3D

 15 15  0  0  0  0  0  0  0  0999 V2000
    8.7100    8.2990   22.9660 F   0  0  0  0  0  0  0  0  0  0  0  0
    9.2420    9.3360   23.6130 C   0  0  0  0  0  0  0  0  0  0  0  0
    9.7030   10.1590   22.6580 F   0  0  0  0  0  0  0  0  0  0  0  0
    8.2110   10.0290   24.4460 C   0  0  0  0  0  0  0  0  0  0  0  0
    7.2550    9.4820   25.1440 N   0  0  0  0  0  0  0  0  0  0  0  0
    6.6350   10.5130   25.7790 N   0  0  0  0  0  0  0  0  0  0  0  0
    5.5260   10.2380   26.6800 C   0  0  0  0  0  0  0  0  0  0  0  0
    8.1900   11.4170   24.6340 C   0  0  0  0  0  0  0  0  0  0  0  0
    7.1680   11.7030   25.4840 C   0  0  0  0  0  0  0  0  0  0  0  0
    9.1460   12.2580   24.0960 N   0  0  0  0  0  0  0  0  0  0  0  0
    8.8530   13.4260   23.4720 C   0  0  0  0  0  0  0  0  0  0  0  0
    7.7070   13.8200   23.2710 O   0  0  0  0  0  0  0  0  0  0  0  0
   10.0710   14.1980   23.0020 C   0  0  0  0  0  0  0  0  0  0  0  0
   11.1630   14.0860   23.9650 C   0  0  0  0  0  0  0  0  0  0  0  0
   12.0460   14.0280   24.6820 N   0  0  0  0  0  0  0  0  0  0  0  0
  7  6  1  0
  6  9  1  0
  9  8  2  0
 10  8  1  0
 11 10  1  0
 12 11  2  0
 13 11  1  0
 14 13  1  0
 15 14  3  0
  8  4  1  0
  4  2  1  0
  3  2  1  0
  2  1  1  0
  5  4  2  0
  6  5  1  0
M  END
