XX01ZVNS2B-x1727_B_301_XX01ZVNS2B-x1291+B+301+1
     RDKit          3D

 25 26  0  0  0  0  0  0  0  0999 V2000
   -8.5420    9.2780  -13.0290 C   0  0  0  0  0  0  0  0  0  0  0  0
   -9.4440    8.0960  -12.8820 C   0  0  0  0  0  0  0  0  0  0  0  0
  -10.5190    8.0160  -13.4720 O   0  0  0  0  0  0  0  0  0  0  0  0
   -8.9950    7.0970  -12.1220 N   0  0  0  0  0  0  0  0  0  0  0  0
   -7.8410    6.2890  -12.4890 C   0  0  1  0  0  0  0  0  0  0  0  0
   -7.2890    5.5240  -11.2840 C   0  0  0  0  0  0  0  0  0  0  0  0
   -8.3460    5.0250  -10.3010 C   0  0  0  0  0  0  0  0  0  0  0  0
   -8.4270    3.5170  -10.1510 C   0  0  0  0  0  0  0  0  0  0  0  0
   -8.4360    3.0720   -8.7050 C   0  0  0  0  0  0  0  0  0  0  0  0
   -9.3490    1.9290   -8.4760 N   0  0  0  0  0  0  0  0  0  0  0  0
   -8.1880    5.3420  -13.6580 C   0  0  0  0  0  0  0  0  0  0  0  0
   -8.3170    4.1360  -13.4960 O   0  0  0  0  0  0  0  0  0  0  0  0
   -8.3700    5.9570  -14.8450 N   0  0  0  0  0  0  0  0  0  0  0  0
   -8.2920    5.4380  -16.1440 C   0  0  0  0  0  0  0  0  0  0  0  0
   -9.3350    4.8560  -16.8290 C   0  0  0  0  0  0  0  0  0  0  0  0
   -9.1640    4.4070  -18.1500 C   0  0  0  0  0  0  0  0  0  0  0  0
   -7.9670    4.5480  -18.7860 C   0  0  0  0  0  0  0  0  0  0  0  0
   -6.8700    5.1540  -18.1270 C   0  0  0  0  0  0  0  0  0  0  0  0
   -5.5880    5.3380  -18.7080 C   0  0  0  0  0  0  0  0  0  0  0  0
   -4.5880    5.9260  -18.0000 C   0  0  0  0  0  0  0  0  0  0  0  0
   -4.8330    6.3570  -16.6790 C   0  0  0  0  0  0  0  0  0  0  0  0
   -6.0120    6.2010  -16.0980 N   0  0  0  0  0  0  0  0  0  0  0  0
   -7.0290    5.6120  -16.7920 C   0  0  0  0  0  0  0  0  0  0  0  0
   -3.7510    7.0140  -15.8770 C   0  0  0  0  0  0  0  0  0  0  0  0
   -5.2850    4.8140  -20.3380 Cl  0  0  0  0  0  0  0  0  0  0  0  0
  1  2  1  0
  2  3  2  0
  2  4  1  0
  4  5  1  0
  5  6  1  1
  6  7  1  0
  7  8  1  0
  8  9  1  0
  9 10  1  0
  5 11  1  0
 11 12  2  0
 11 13  1  0
 13 14  1  0
 14 15  2  0
 15 16  1  0
 16 17  2  0
 17 18  1  0
 18 19  2  0
 19 20  1  0
 20 21  2  0
 21 22  1  0
 22 23  2  0
 21 24  1  0
 19 25  1  0
 14 23  1  0
 18 23  1  0
M  CHG  1  10   1
M  END
