A71EV2A-x0571_A_147_1_A71EV2A-x0571+A+147+1
     RDKit          3D

 11 11  0  0  0  0  0  0  0  0999 V2000
   33.3670   10.4050   15.0790 O   0  0  0  0  0  0  0  0  0  0  0  0
   34.5980   10.4580   14.9400 C   0  0  0  0  0  0  0  0  0  0  0  0
   35.4200   10.8760   15.8960 N   0  0  0  0  0  0  0  0  0  0  0  0
   35.2290   10.0570   13.6520 C   0  0  0  0  0  0  0  0  0  0  0  0
   36.5190   10.3580   13.1860 C   0  0  0  0  0  0  0  0  0  0  0  0
   34.5370    9.3620   12.7710 N   0  0  0  0  0  0  0  0  0  0  0  0
   35.4090    9.2100   11.6650 O   0  0  0  0  0  0  0  0  0  0  0  0
   36.5760    9.8220   11.9560 C   0  0  0  0  0  0  0  0  0  0  0  0
   37.6060    9.7900   10.8810 C   0  0  0  0  0  0  0  0  0  0  0  0
   38.6880    8.9480   11.2420 O   0  0  0  0  0  0  0  0  0  0  0  0
   39.6400    8.7730   10.1930 C   0  0  0  0  0  0  0  0  0  0  0  0
 11 10  1  0
 10  9  1  0
  9  8  1  0
  8  5  2  0
  5  4  1  0
  6  4  2  0
  7  6  1  0
  8  7  1  0
  4  2  1  0
  2  1  2  0
  3  2  1  0
M  END
