A71EV2A-x0375_A_147_1_A71EV2A-x0395+A+148+1
     RDKit          3D

 12 12  0  0  0  0  0  0  0  0999 V2000
   17.4110   -5.1960   11.8200 S   0  0  0  0  0  0  0  0  0  0  0  0
   16.9200   -6.8020   11.6300 C   0  0  0  0  0  0  0  0  0  0  0  0
   17.6230   -7.8370   12.0900 N   0  0  0  0  0  0  0  0  0  0  0  0
   15.7790   -7.0710   10.9820 N   0  0  0  0  0  0  0  0  0  0  0  0
   15.2320   -8.3390   10.7090 C   0  0  0  0  0  0  0  0  0  0  0  0
   13.9670   -8.6330   11.2300 C   0  0  0  0  0  0  0  0  0  0  0  0
   13.4600   -7.6880   12.0800 O   0  0  0  0  0  0  0  0  0  0  0  0
   12.0760   -7.7770   12.4260 C   0  0  0  0  0  0  0  0  0  0  0  0
   15.8620   -9.2640    9.8800 C   0  0  0  0  0  0  0  0  0  0  0  0
   15.2190  -10.4490    9.5570 C   0  0  0  0  0  0  0  0  0  0  0  0
   13.9610  -10.7170   10.0510 C   0  0  0  0  0  0  0  0  0  0  0  0
   13.3300   -9.8150   10.8940 C   0  0  0  0  0  0  0  0  0  0  0  0
  8  7  1  0
  7  6  1  0
  6 12  2  0
 12 11  1  0
 11 10  2  0
 10  9  1  0
  9  5  2  0
  6  5  1  0
  5  4  1  0
  4  2  1  0
  2  1  2  0
  3  2  1  0
M  END
