XX01ZVNS2B-x1098_B_301_XX01ZVNS2B-x1291+B+301+1
     RDKit          3D

 19 20  0  0  0  0  0  0  0  0999 V2000
   -6.0080    6.6070  -16.7490 F   0  0  0  0  0  0  0  0  0  0  0  0
   -6.0520    5.2900  -16.9490 C   0  0  0  0  0  0  0  0  0  0  0  0
   -5.2070    5.0500  -17.9630 F   0  0  0  0  0  0  0  0  0  0  0  0
   -5.4980    4.7180  -15.8790 F   0  0  0  0  0  0  0  0  0  0  0  0
   -7.4460    4.7920  -17.2240 C   0  0  0  0  0  0  0  0  0  0  0  0
   -7.7940    4.5420  -18.5430 C   0  0  0  0  0  0  0  0  0  0  0  0
   -9.0580    4.0760  -18.8650 C   0  0  0  0  0  0  0  0  0  0  0  0
   -9.9790    3.8360  -17.8790 C   0  0  0  0  0  0  0  0  0  0  0  0
   -9.6540    4.0650  -16.5550 C   0  0  0  0  0  0  0  0  0  0  0  0
   -8.4010    4.5660  -16.2170 C   0  0  0  0  0  0  0  0  0  0  0  0
   -8.1950    4.9830  -14.7890 C   0  0  0  0  0  0  0  0  0  0  0  0
   -7.6670    6.0550  -14.5010 O   0  0  0  0  0  0  0  0  0  0  0  0
   -8.6790    4.1260  -13.8330 N   0  0  0  0  0  0  0  0  0  0  0  0
   -8.5800    4.4560  -12.4690 C   0  0  0  0  0  0  0  0  0  0  0  0
   -8.3640    3.6800  -11.3660 C   0  0  0  0  0  0  0  0  0  0  0  0
   -8.6480    5.7630  -11.9830 C   0  0  0  0  0  0  0  0  0  0  0  0
   -8.4710    5.8060  -10.6760 N   0  0  0  0  0  0  0  0  0  0  0  0
   -8.2820    4.5160  -10.3180 N   0  0  0  0  0  0  0  0  0  0  0  0
   -7.9190    4.1870   -8.9470 C   0  0  0  0  0  0  0  0  0  0  0  0
 19 18  1  0
 18 15  1  0
 15 14  2  0
 14 13  1  0
 13 11  1  0
 12 11  2  0
 11 10  1  0
 10  9  2  0
  9  8  1  0
  8  7  2  0
  7  6  1  0
  6  5  2  0
 10  5  1  0
  5  2  1  0
  3  2  1  0
  4  2  1  0
  2  1  1  0
 16 14  1  0
 17 16  2  0
 18 17  1  0
M  END
