XX01ZVNS2B-x1234_B_301_XX01ZVNS2B-x1291+B+301+1
     RDKit          3D

 23 25  0  0  0  0  0  0  0  0999 V2000
   -4.4860    9.8420  -17.1760 C   0  0  0  0  0  0  0  0  0  0  0  0
   -3.7210    8.6630  -17.4060 O   0  0  0  0  0  0  0  0  0  0  0  0
   -4.2070    7.5010  -16.8950 C   0  0  0  0  0  0  0  0  0  0  0  0
   -3.4100    6.7900  -16.0160 C   0  0  0  0  0  0  0  0  0  0  0  0
   -3.8030    5.6360  -15.4640 N   0  0  0  0  0  0  0  0  0  0  0  0
   -4.9960    5.1570  -15.8300 C   0  0  0  0  0  0  0  0  0  0  0  0
   -5.8660    5.7820  -16.7150 C   0  0  0  0  0  0  0  0  0  0  0  0
   -7.1740    5.1790  -17.1150 C   0  0  0  0  0  0  0  0  0  0  0  0
   -7.3770    4.8360  -18.4530 C   0  0  0  0  0  0  0  0  0  0  0  0
   -8.5380    4.2180  -18.8740 C   0  0  0  0  0  0  0  0  0  0  0  0
   -9.5500    3.9710  -17.9780 C   0  0  0  0  0  0  0  0  0  0  0  0
   -9.3640    4.2640  -16.6440 C   0  0  0  0  0  0  0  0  0  0  0  0
   -8.2130    4.9210  -16.2040 C   0  0  0  0  0  0  0  0  0  0  0  0
   -8.1520    5.2140  -14.7330 C   0  0  0  0  0  0  0  0  0  0  0  0
   -7.7530    6.2910  -14.3190 O   0  0  0  0  0  0  0  0  0  0  0  0
   -8.5370    4.2000  -13.9060 N   0  0  0  0  0  0  0  0  0  0  0  0
   -8.5600    4.2230  -12.5010 C   0  0  0  0  0  0  0  0  0  0  0  0
   -8.7990    3.1350  -11.6500 C   0  0  0  0  0  0  0  0  0  0  0  0
   -8.7670    3.4870  -10.3730 N   0  0  0  0  0  0  0  0  0  0  0  0
   -8.5070    4.8330  -10.3930 N   0  0  0  0  0  0  0  0  0  0  0  0
   -8.3940    5.5740   -9.1400 C   0  0  0  0  0  0  0  0  0  0  0  0
   -8.3860    5.3110  -11.6540 C   0  0  0  0  0  0  0  0  0  0  0  0
   -5.4270    6.9830  -17.2740 C   0  0  0  0  0  0  0  0  0  0  0  0
  1  2  1  0
  2  3  1  0
  3  4  2  0
  4  5  1  0
  5  6  2  0
  6  7  1  0
  7  8  1  0
  8  9  2  0
  9 10  1  0
 10 11  2  0
 11 12  1  0
 12 13  2  0
 13 14  1  0
 14 15  2  0
 14 16  1  0
 16 17  1  0
 17 18  1  0
 18 19  2  0
 19 20  1  0
 20 21  1  0
 20 22  1  0
  7 23  2  0
  3 23  1  0
  8 13  1  0
 17 22  2  0
M  END
