XX01ZVNS2B-x1715_B_301_XX01ZVNS2B-x1291+B+301+1
     RDKit          3D

 17 18  0  0  0  0  0  0  0  0999 V2000
   -9.9720    4.2080  -18.6250 C   0  0  0  0  0  0  0  0  0  0  0  0
   -8.6820    4.4770  -17.9080 C   0  0  0  0  0  0  0  0  0  0  0  0
   -8.6520    4.4190  -16.4960 C   0  0  0  0  0  0  0  0  0  0  0  0
   -7.4710    4.6720  -15.8460 C   0  0  0  0  0  0  0  0  0  0  0  0
   -6.2990    4.9680  -16.6010 C   0  0  0  0  0  0  0  0  0  0  0  0
   -5.0440    5.2270  -15.9980 C   0  0  0  0  0  0  0  0  0  0  0  0
   -3.9620    5.5060  -16.7670 C   0  0  0  0  0  0  0  0  0  0  0  0
   -4.0890    5.5380  -18.1710 C   0  0  0  0  0  0  0  0  0  0  0  0
   -5.2790    5.2990  -18.8180 C   0  0  0  0  0  0  0  0  0  0  0  0
   -6.4270    5.0030  -18.0190 C   0  0  0  0  0  0  0  0  0  0  0  0
   -7.6150    4.7550  -18.6460 N   0  0  0  0  0  0  0  0  0  0  0  0
   -5.3680    5.3340  -20.3180 C   0  0  0  0  0  0  0  0  0  0  0  0
   -7.2910    4.6480  -14.4930 O   0  0  0  0  0  0  0  0  0  0  0  0
   -8.4050    4.4110  -13.6330 C   0  0  0  0  0  0  0  0  0  0  0  0
   -8.3790    3.0150  -13.0650 C   0  0  0  0  0  0  0  0  0  0  0  0
   -8.0190    2.0680  -13.7750 O   0  0  0  0  0  0  0  0  0  0  0  0
   -8.7650    2.8820  -11.8020 N   0  0  0  0  0  0  0  0  0  0  0  0
  1  2  1  0
  2  3  2  0
  3  4  1  0
  4  5  2  0
  5  6  1  0
  6  7  2  0
  7  8  1  0
  8  9  2  0
  9 10  1  0
 10 11  2  0
  9 12  1  0
  4 13  1  0
 13 14  1  0
 14 15  1  0
 15 16  2  0
 15 17  1  0
  2 11  1  0
  5 10  1  0
M  END
