XX01ZVNS2B-x1667_B_301_XX01ZVNS2B-x1291+B+301+1
     RDKit          3D

 18 19  0  0  0  0  0  0  0  0999 V2000
   -5.6170    5.5860  -18.5910 C   0  0  0  0  0  0  0  0  0  0  0  0
   -6.8190    5.1460  -17.7960 C   0  0  0  0  0  0  0  0  0  0  0  0
   -7.9550    4.6580  -18.4190 C   0  0  0  0  0  0  0  0  0  0  0  0
   -9.0550    4.2460  -17.6850 C   0  0  0  0  0  0  0  0  0  0  0  0
   -9.0270    4.3070  -16.3030 C   0  0  0  0  0  0  0  0  0  0  0  0
   -7.8950    4.7860  -15.6470 C   0  0  0  0  0  0  0  0  0  0  0  0
   -6.8030    5.2000  -16.4080 C   0  0  0  0  0  0  0  0  0  0  0  0
   -7.7490    4.9100  -14.1600 C   0  0  0  0  0  0  0  0  0  0  0  0
   -6.8080    5.5390  -13.6920 O   0  0  0  0  0  0  0  0  0  0  0  0
   -8.6850    4.3280  -13.3750 N   0  0  0  0  0  0  0  0  0  0  0  0
   -8.7380    4.4300  -11.9460 C   0  0  0  0  0  0  0  0  0  0  0  0
   -8.5980    3.2780  -11.1740 C   0  0  0  0  0  0  0  0  0  0  0  0
   -8.6240    3.3650   -9.7860 C   0  0  0  0  0  0  0  0  0  0  0  0
   -8.7900    4.6130   -9.1840 C   0  0  0  0  0  0  0  0  0  0  0  0
   -8.9210    5.7540   -9.9520 C   0  0  0  0  0  0  0  0  0  0  0  0
   -8.8980    5.6920  -11.3480 C   0  0  0  0  0  0  0  0  0  0  0  0
   -9.0430    6.9500  -12.1530 C   0  0  0  0  0  0  0  0  0  0  0  0
   -8.4960    2.2300   -9.0080 N   0  0  0  0  0  0  0  0  0  0  0  0
  1  2  1  0
  2  3  2  0
  3  4  1  0
  4  5  2  0
  5  6  1  0
  6  7  2  0
  6  8  1  0
  8  9  2  0
  8 10  1  0
 10 11  1  0
 11 12  2  0
 12 13  1  0
 13 14  2  0
 14 15  1  0
 15 16  2  0
 16 17  1  0
 13 18  1  0
  2  7  1  0
 11 16  1  0
M  END
