XX01ZVNS2B-x1288_B_301_XX01ZVNS2B-x1291+B+301+1
     RDKit          3D

 23 25  0  0  0  0  0  0  0  0999 V2000
   -3.7310    8.6100  -17.7510 C   0  0  0  0  0  0  0  0  0  0  0  0
   -4.2620    7.3660  -17.0800 C   0  0  0  0  0  0  0  0  0  0  0  0
   -5.5070    6.8440  -17.4090 C   0  0  0  0  0  0  0  0  0  0  0  0
   -5.9870    5.7030  -16.7590 C   0  0  0  0  0  0  0  0  0  0  0  0
   -7.3150    5.0970  -17.0960 C   0  0  0  0  0  0  0  0  0  0  0  0
   -7.5610    4.6970  -18.4140 C   0  0  0  0  0  0  0  0  0  0  0  0
   -8.7530    4.1020  -18.7820 C   0  0  0  0  0  0  0  0  0  0  0  0
   -9.7270    3.8750  -17.8380 C   0  0  0  0  0  0  0  0  0  0  0  0
   -9.5120    4.2410  -16.5240 C   0  0  0  0  0  0  0  0  0  0  0  0
   -8.3120    4.8450  -16.1320 C   0  0  0  0  0  0  0  0  0  0  0  0
   -8.1820    5.2210  -14.6790 C   0  0  0  0  0  0  0  0  0  0  0  0
   -7.8110    6.3380  -14.3520 O   0  0  0  0  0  0  0  0  0  0  0  0
   -8.5080    4.2660  -13.7590 N   0  0  0  0  0  0  0  0  0  0  0  0
   -8.4890    4.4580  -12.3630 C   0  0  0  0  0  0  0  0  0  0  0  0
   -8.6790    3.4740  -11.3860 C   0  0  0  0  0  0  0  0  0  0  0  0
   -8.6010    3.9690  -10.1610 N   0  0  0  0  0  0  0  0  0  0  0  0
   -8.3590    5.3070  -10.3340 N   0  0  0  0  0  0  0  0  0  0  0  0
   -8.2220    6.1700   -9.1620 C   0  0  0  0  0  0  0  0  0  0  0  0
   -8.2870    5.6400  -11.6450 C   0  0  0  0  0  0  0  0  0  0  0  0
   -5.1340    5.1290  -15.8160 C   0  0  0  0  0  0  0  0  0  0  0  0
   -3.9260    5.6160  -15.4830 N   0  0  0  0  0  0  0  0  0  0  0  0
   -3.5300    6.6880  -16.1070 C   0  0  0  0  0  0  0  0  0  0  0  0
   -2.3170    7.1550  -15.7540 F   0  0  0  0  0  0  0  0  0  0  0  0
  1  2  1  0
  2  3  2  0
  3  4  1  0
  4  5  1  0
  5  6  2  0
  6  7  1  0
  7  8  2  0
  8  9  1  0
  9 10  2  0
 10 11  1  0
 11 12  2  0
 11 13  1  0
 13 14  1  0
 14 15  1  0
 15 16  2  0
 16 17  1  0
 17 18  1  0
 17 19  1  0
  4 20  2  0
 20 21  1  0
 21 22  2  0
 22 23  1  0
  2 22  1  0
  5 10  1  0
 14 19  2  0
M  END
