XX01ZVNS2B-x2048_B_301_XX01ZVNS2B-x1291+B+301+1
     RDKit          3D

 25 26  0  0  0  0  0  0  0  0999 V2000
   -4.9080    5.9440  -11.7030 C   0  0  0  0  0  0  0  0  0  0  0  0
   -5.5200    4.6240  -12.0480 C   0  0  0  0  0  0  0  0  0  0  0  0
   -4.8820    3.7370  -12.6140 O   0  0  0  0  0  0  0  0  0  0  0  0
   -6.7980    4.4470  -11.7050 N   0  0  0  0  0  0  0  0  0  0  0  0
   -7.4710    3.1790  -11.9370 C   0  0  1  0  0  0  0  0  0  0  0  0
   -8.6880    3.0490  -11.0230 C   0  0  0  0  0  0  0  0  0  0  0  0
   -8.3320    3.0760   -9.5450 C   0  0  0  0  0  0  0  0  0  0  0  0
   -9.3270    2.3250   -8.6770 C   0  0  0  0  0  0  0  0  0  0  0  0
   -8.9910    2.3370   -7.2500 N   0  0  0  0  0  0  0  0  0  0  0  0
   -7.8520    2.9840  -13.4160 C   0  0  0  0  0  0  0  0  0  0  0  0
   -7.8560    1.8730  -13.9230 O   0  0  0  0  0  0  0  0  0  0  0  0
   -8.1850    4.1100  -14.0830 N   0  0  0  0  0  0  0  0  0  0  0  0
   -8.3930    4.2570  -15.4600 C   0  0  0  0  0  0  0  0  0  0  0  0
   -9.5960    4.0640  -16.0930 C   0  0  0  0  0  0  0  0  0  0  0  0
   -9.7130    4.2420  -17.4800 C   0  0  0  0  0  0  0  0  0  0  0  0
   -8.6430    4.6140  -18.2320 C   0  0  0  0  0  0  0  0  0  0  0  0
   -7.3800    4.8330  -17.6280 C   0  0  0  0  0  0  0  0  0  0  0  0
   -6.2190    5.2160  -18.3680 C   0  0  0  0  0  0  0  0  0  0  0  0
   -6.3150    5.4200  -19.8610 C   0  0  0  0  0  0  0  0  0  0  0  0
   -5.0580    5.6260  -20.4980 O   0  0  0  0  0  0  0  0  0  0  0  0
   -5.0460    5.3980  -17.6870 C   0  0  0  0  0  0  0  0  0  0  0  0
   -4.9960    5.1960  -16.2910 C   0  0  0  0  0  0  0  0  0  0  0  0
   -3.7080    5.3850  -15.5490 C   0  0  0  0  0  0  0  0  0  0  0  0
   -6.0560    4.8360  -15.5840 N   0  0  0  0  0  0  0  0  0  0  0  0
   -7.2470    4.6520  -16.2230 C   0  0  0  0  0  0  0  0  0  0  0  0
  1  2  1  0
  2  3  2  0
  2  4  1  0
  4  5  1  0
  5  6  1  1
  6  7  1  0
  7  8  1  0
  8  9  1  0
  5 10  1  0
 10 11  2  0
 10 12  1  0
 12 13  1  0
 13 14  2  0
 14 15  1  0
 15 16  2  0
 16 17  1  0
 17 18  2  0
 18 19  1  0
 19 20  1  0
 18 21  1  0
 21 22  2  0
 22 23  1  0
 22 24  1  0
 24 25  2  0
 13 25  1  0
 17 25  1  0
M  END
