A71EV2A-x0194_A_147_1_A71EV2A-x0395+A+148+1
     RDKit          3D

 15 16  0  0  0  0  0  0  0  0999 V2000
   17.1920   -5.2010   23.6050 F   0  0  0  0  0  0  0  0  0  0  0  0
   17.9330   -4.1410   23.9930 C   0  0  0  0  0  0  0  0  0  0  0  0
   18.5200   -4.1850   25.2430 C   0  0  0  0  0  0  0  0  0  0  0  0
   19.2820   -3.0810   25.6200 C   0  0  0  0  0  0  0  0  0  0  0  0
   19.4460   -2.0020   24.7640 C   0  0  0  0  0  0  0  0  0  0  0  0
   18.8500   -2.0060   23.5240 C   0  0  0  0  0  0  0  0  0  0  0  0
   18.0820   -3.0870   23.1240 C   0  0  0  0  0  0  0  0  0  0  0  0
   18.4010   -5.4000   26.1300 C   0  0  0  0  0  0  0  0  0  0  0  0
   17.3090   -5.3210   27.1060 N   0  0  0  0  0  0  0  0  0  0  0  0
   17.7340   -5.7370   28.4540 C   0  0  0  0  0  0  0  0  0  0  0  0
   18.5580   -4.6200   29.0700 C   0  0  0  0  0  0  0  0  0  0  0  0
   17.8200   -3.9960   30.2250 C   0  0  0  0  0  0  0  0  0  0  0  0
   17.6040   -4.9380   31.2830 O   0  0  0  0  0  0  0  0  0  0  0  0
   17.2260   -6.2400   30.7940 C   0  0  0  0  0  0  0  0  0  0  0  0
   16.6380   -6.1700   29.4070 C   0  0  0  0  0  0  0  0  0  0  0  0
  2  1  1  0
  2  7  2  0
  7  6  1  0
  6  5  2  0
  5  4  1  0
  4  3  2  0
  3  2  1  0
  8  3  1  0
  9  8  1  0
 10  9  1  0
 10 15  1  0
 15 14  1  0
 14 13  1  0
 13 12  1  0
 12 11  1  0
 11 10  1  0
M  END
