Mac1-DLS-EU0034_0A
     RDKit          3D

  9 10  0  0  0  0  0  0  0  0999 V2000
   28.6370   51.7230   -7.4810 C   0  0  0  0  0  0  0  0  0  0  0  0
   29.1020   50.5880   -6.5750 C   0  0  0  0  0  0  0  0  0  0  0  0
   27.9620   51.0120   -8.5590 N   0  0  0  0  0  0  0  0  0  0  0  0
   28.3070   49.6880   -8.6310 C   0  0  0  0  0  0  0  0  0  0  0  0
   28.9800   49.3660   -7.4490 C   0  0  0  0  0  0  0  0  0  0  0  0
   28.0480   48.8400   -9.6480 N   0  0  0  0  0  0  0  0  0  0  0  0
   28.4670   47.5900   -9.4150 C   0  0  0  0  0  0  0  0  0  0  0  0
   29.1290   47.1330   -8.3500 N   0  0  0  0  0  0  0  0  0  0  0  0
   29.3680   48.0390   -7.3930 C   0  0  0  0  0  0  0  0  0  0  0  0
  2  1  1  0
  3  1  1  0
  4  3  1  0
  5  4  1  0
  5  2  1  0
  6  4  1  0
  7  6  1  0
  8  7  1  0
  9  8  1  0
  9  5  1  0
M  END
$$$$
Mac1-J1042_0A
     RDKit          3D

 21 23  0  0  0  0  0  0  0  0999 V2000
   28.5390   53.7540   -8.0810 N   0  0  0  0  0  0  0  0  0  0  0  0
   28.9780   50.2600   -6.0430 C   0  0  0  0  0  0  0  0  0  0  0  0
   26.5470   57.0540   -8.0670 O   0  0  0  0  0  0  0  0  0  0  0  0
   28.5200   50.0980   -7.3300 C   0  0  0  0  0  0  0  0  0  0  0  0
   26.7490   58.4860  -12.7620 C   0  0  0  0  0  0  0  0  0  0  0  0
   25.9860   57.4720  -10.9150 C   0  0  0  0  0  0  0  0  0  0  0  0
   29.0580   52.6140   -6.2620 C   0  0  0  0  0  0  0  0  0  0  0  0
   29.2240   51.4810   -5.4720 C   0  0  0  0  0  0  0  0  0  0  0  0
   28.3220   51.2260   -8.1100 C   0  0  0  0  0  0  0  0  0  0  0  0
   28.6040   52.4710   -7.5690 C   0  0  0  0  0  0  0  0  0  0  0  0
   28.9500   54.5940   -7.1040 C   0  0  0  0  0  0  0  0  0  0  0  0
   29.0180   56.0830   -7.3280 C   0  0  0  0  0  0  0  0  0  0  0  0
   27.4320   56.9990   -8.9160 C   0  0  0  0  0  0  0  0  0  0  0  0
   27.2220   57.5650  -10.2850 C   0  0  0  0  0  0  0  0  0  0  0  0
   28.2430   58.1830  -10.9890 C   0  0  0  0  0  0  0  0  0  0  0  0
   28.0190   58.6600  -12.2650 C   0  0  0  0  0  0  0  0  0  0  0  0
   29.2530   49.1490   -5.3080 F   0  0  0  0  0  0  0  0  0  0  0  0
   26.4810   58.9250  -14.0140 F   0  0  0  0  0  0  0  0  0  0  0  0
   28.6140   56.4300   -8.6730 N   0  0  0  0  0  0  0  0  0  0  0  0
   25.7420   57.9270  -12.1520 N   0  0  0  0  0  0  0  0  0  0  0  0
   29.2750   53.9680   -5.9890 N   0  0  0  0  0  0  0  0  0  0  0  0
  4  2  1  0
  8  7  1  0
  8  2  1  0
  9  4  1  0
 10  9  1  0
 10  7  1  0
 10  1  1  0
 11  1  1  0
 12 11  1  0
 13  3  1  0
 14  6  1  0
 14 13  1  0
 15 14  1  0
 16  5  1  0
 16 15  1  0
 17  2  1  0
 18  5  1  0
 19 13  1  0
 19 12  1  0
 20  6  1  0
 20  5  1  0
 21  7  1  0
 21 11  1  0
M  END
$$$$
Mac1-J1071_0A
     RDKit          3D

 21 23  0  0  0  0  0  0  0  0999 V2000
   25.0180   58.2670  -10.8360 N   0  0  0  0  0  0  0  0  0  0  0  0
   23.9240   58.6240  -10.2220 C   0  0  0  0  0  0  0  0  0  0  0  0
   27.0200   57.3410   -6.6500 O   0  0  0  0  0  0  0  0  0  0  0  0
   23.6410   58.4640   -8.8860 C   0  0  0  0  0  0  0  0  0  0  0  0
   28.4060   49.8610   -6.8370 C   0  0  0  0  0  0  0  0  0  0  0  0
   29.0690   50.1400   -5.6510 C   0  0  2  0  0  0  0  0  0  0  0  0
   29.3340   51.4340   -5.2450 C   0  0  0  0  0  0  0  0  0  0  0  0
   28.9810   52.4630   -6.1030 C   0  0  2  0  0  0  0  0  0  0  0  0
   24.6310   57.8830   -8.1190 C   0  0  0  0  0  0  0  0  0  0  0  0
   25.8330   57.5110   -8.6970 C   0  0  1  0  0  0  0  0  0  0  0  0
   25.9670   57.7130  -10.0670 C   0  0  0  0  0  0  0  0  0  0  0  0
   26.9470   57.0120   -7.8330 C   0  0  0  0  0  0  0  0  0  0  0  0
   28.9950   55.7300   -7.6700 C   0  0  0  0  0  0  0  0  0  0  0  0
   28.7860   54.3130   -7.2770 C   0  0  1  0  0  0  0  0  0  0  0  0
   28.3360   52.2100   -7.3140 C   0  0  2  0  0  0  0  0  0  0  0  0
   28.0240   50.9010   -7.6690 C   0  0  0  0  0  0  0  0  0  0  0  0
   23.0110   59.2450  -11.0060 F   0  0  0  0  0  0  0  0  0  0  0  0
   27.8530   56.2190   -8.4090 N   0  0  0  0  0  0  0  0  0  0  0  0
   28.2180   53.3950   -8.0340 N   0  0  0  0  0  0  0  0  0  0  0  0
   29.2430   53.8210   -6.1040 N   0  0  0  0  0  0  0  0  0  0  0  0
   29.6590   48.8230   -4.6840 Cl  0  0  0  0  0  0  0  0  0  0  0  0
  2  1  1  0
  4  2  1  0
  6  5  1  0
  7  6  1  0
  8  7  1  6
  9  4  1  0
 10  9  1  0
 11 10  1  0
 11  1  1  0
 10 12  1  1
 12  3  1  0
 14 13  1  6
 15  8  1  0
 15 16  1  6
 16  5  1  0
 17  2  1  0
 18 12  1  0
 18 13  1  0
 19 15  1  0
 19 14  1  0
 20 14  1  0
 20  8  1  0
  6 21  1  6
M  END
$$$$
Mac1-x10173_0A
     RDKit          3D

 17 19  0  0  0  0  0  0  0  0999 V2000
   32.7380   47.0140   -7.9460 O   0  0  0  0  0  0  0  0  0  0  0  0
   31.6880   46.3940   -7.8370 C   0  0  0  0  0  0  0  0  0  0  0  0
   31.0870   45.9280   -8.8490 O   0  0  0  0  0  0  0  0  0  0  0  0
   30.9820   46.0920   -6.5810 C   0  0  2  0  0  0  0  0  0  0  0  0
   31.1390   44.7280   -5.9480 C   0  0  0  0  0  0  0  0  0  0  0  0
   30.0180   44.6690   -4.9200 C   0  0  0  0  0  0  0  0  0  0  0  0
   29.5220   46.0880   -4.7260 C   0  0  0  0  0  0  0  0  0  0  0  0
   30.1010   46.8510   -5.9070 C   0  0  0  0  0  0  0  0  0  0  0  0
   29.6770   48.2600   -6.1740 C   0  0  0  0  0  0  0  0  0  0  0  0
   29.2490   48.6530   -7.4440 C   0  0  0  0  0  0  0  0  0  0  0  0
   28.8520   49.9720   -7.6490 C   0  0  0  0  0  0  0  0  0  0  0  0
   28.1830   50.7150   -9.0710 S   0  0  0  0  0  0  0  0  0  0  0  0
   28.0380   52.1940   -8.1890 C   0  0  0  0  0  0  0  0  0  0  0  0
   28.4310   52.1860   -6.9660 N   0  0  0  0  0  0  0  0  0  0  0  0
   28.9160   50.9210   -6.6260 C   0  0  1  0  0  0  0  0  0  0  0  0
   29.3590   50.5240   -5.3680 C   0  0  0  0  0  0  0  0  0  0  0  0
   29.7090   49.2050   -5.1410 C   0  0  0  0  0  0  0  0  0  0  0  0
  2  1  1  0
  3  2  1  0
  4  2  1  6
  5  4  1  0
  6  5  1  0
  7  6  1  0
  8  4  1  0
  8  7  1  0
  9  8  1  0
 10  9  1  0
 11 10  1  0
 12 11  1  0
 13 12  1  0
 14 13  1  0
 15 14  1  0
 15 11  1  0
 15 16  1  1
 17  9  1  0
 17 16  1  0
M  END
$$$$
Mac1-x10181_0A
     RDKit          3D

 17 19  0  0  0  0  0  0  0  0999 V2000
   32.6170   47.1740   -7.9770 O   0  0  0  0  0  0  0  0  0  0  0  0
   31.6580   46.5050   -7.7440 C   0  0  0  0  0  0  0  0  0  0  0  0
   30.9790   45.9220   -8.6720 O   0  0  0  0  0  0  0  0  0  0  0  0
   31.1620   46.2640   -6.3410 C   0  0  1  0  0  0  0  0  0  0  0  0
   29.7930   46.8820   -5.9540 C   0  0  2  0  0  0  0  0  0  0  0  0
   28.8330   45.7630   -6.3500 C   0  0  0  0  0  0  0  0  0  0  0  0
   29.4990   44.5480   -5.7360 C   0  0  0  0  0  0  0  0  0  0  0  0
   30.9980   44.7580   -6.0030 C   0  0  0  0  0  0  0  0  0  0  0  0
   29.4900   48.2980   -6.4310 C   0  0  1  0  0  0  0  0  0  0  0  0
   28.8490   48.5960   -7.6710 C   0  0  0  0  0  0  0  0  0  0  0  0
   28.4590   47.9220   -8.8550 C   0  0  0  0  0  0  0  0  0  0  0  0
   27.9410   48.7560   -9.7390 N   0  0  0  0  0  0  0  0  0  0  0  0
   27.9740   49.9920   -9.1600 N   0  0  0  0  0  0  0  0  0  0  0  0
   28.5060   49.9470   -7.9110 C   0  0  0  0  0  0  0  0  0  0  0  0
   28.7430   50.9620   -6.9900 C   0  0  0  0  0  0  0  0  0  0  0  0
   29.3540   50.6380   -5.8000 C   0  0  0  0  0  0  0  0  0  0  0  0
   29.7330   49.3360   -5.5370 C   0  0  0  0  0  0  0  0  0  0  0  0
  2  1  1  0
  3  2  1  0
  4  2  1  6
  5  4  1  0
  5  6  1  6
  7  6  1  0
  8  7  1  0
  8  4  1  0
  9  5  1  0
 10  9  1  0
 11 10  1  0
 12 11  1  0
 13 12  1  0
 14 10  1  0
 14 13  1  0
 15 14  1  0
 16 15  1  0
  9 17  1  1
 17 16  1  0
M  END
$$$$
Mac1-x10183_0A
     RDKit          3D

 18 20  0  0  0  0  0  0  0  0999 V2000
   31.1310   45.9070   -8.4620 O   0  0  0  0  0  0  0  0  0  0  0  0
   32.0430   46.0640   -7.6780 C   0  0  0  0  0  0  0  0  0  0  0  0
   33.1690   46.6240   -7.9980 O   0  0  0  0  0  0  0  0  0  0  0  0
   31.9490   45.6030   -6.2420 C   0  0  1  0  0  0  0  0  0  0  0  0
   30.8800   46.3690   -5.4180 C   0  0  2  0  0  0  0  0  0  0  0  0
   29.6420   45.4750   -5.6010 C   0  0  0  0  0  0  0  0  0  0  0  0
   30.1920   44.0900   -5.3770 C   0  0  0  0  0  0  0  0  0  0  0  0
   31.5510   44.1100   -6.1200 C   0  0  0  0  0  0  0  0  0  0  0  0
   30.7440   47.8200   -5.8390 C   0  0  1  0  0  0  0  0  0  0  0  0
   29.5810   48.2980   -6.3890 C   0  0  0  0  0  0  0  0  0  0  0  0
   29.4290   49.6680   -6.7260 C   0  0  0  0  0  0  0  0  0  0  0  0
   30.4990   50.5530   -6.4720 C   0  0  0  0  0  0  0  0  0  0  0  0
   31.6940   50.0310   -5.9220 C   0  0  0  0  0  0  0  0  0  0  0  0
   31.7990   48.7070   -5.6090 C   0  0  0  0  0  0  0  0  0  0  0  0
   28.2460   50.1950   -7.2920 C   0  0  0  0  0  0  0  0  0  0  0  0
   28.1700   51.5400   -7.5440 C   0  0  0  0  0  0  0  0  0  0  0  0
   29.1660   52.4060   -7.3020 N   0  0  0  0  0  0  0  0  0  0  0  0
   30.2850   51.9250   -6.7730 C   0  0  0  0  0  0  0  0  0  0  0  0
  2  1  1  0
  3  2  1  0
  4  2  1  6
  5  4  1  0
  5  6  1  6
  7  6  1  0
  8  4  1  0
  8  7  1  0
  9  5  1  0
  9 10  1  1
 11 10  1  0
 12 11  1  0
 13 12  1  0
 14  9  1  0
 14 13  1  0
 15 11  1  0
 16 15  1  0
 17 16  1  0
 18 17  1  0
 18 12  1  0
M  END
$$$$
Mac1-x10184_0A
     RDKit          3D

 18 20  0  0  0  0  0  0  0  0999 V2000
   32.8440   46.7880   -7.8070 O   0  0  0  0  0  0  0  0  0  0  0  0
   31.9170   46.0060   -7.6250 C   0  0  0  0  0  0  0  0  0  0  0  0
   31.3410   45.3810   -8.5840 O   0  0  0  0  0  0  0  0  0  0  0  0
   31.3690   45.6650   -6.2550 C   0  0  2  0  0  0  0  0  0  0  0  0
   31.2800   44.1430   -5.9380 C   0  0  0  0  0  0  0  0  0  0  0  0
   30.0730   44.0120   -5.0280 C   0  0  0  0  0  0  0  0  0  0  0  0
   29.1080   45.0170   -5.6130 C   0  0  0  0  0  0  0  0  0  0  0  0
   29.9790   46.2600   -5.8830 C   0  0  2  0  0  0  0  0  0  0  0  0
   29.3770   47.2260   -6.8950 C   0  0  1  0  0  0  0  0  0  0  0  0
   28.7610   46.7660   -8.0620 C   0  0  0  0  0  0  0  0  0  0  0  0
   28.1480   47.6350   -8.9530 C   0  0  0  0  0  0  0  0  0  0  0  0
   29.3840   48.5910   -6.6140 C   0  0  0  0  0  0  0  0  0  0  0  0
   28.7600   49.4600   -7.5040 C   0  0  0  0  0  0  0  0  0  0  0  0
   28.6360   50.8330   -7.5300 N   0  0  0  0  0  0  0  0  0  0  0  0
   29.1500   51.7540   -6.5270 C   0  0  0  0  0  0  0  0  0  0  0  0
   28.1450   49.0040   -8.6680 C   0  0  1  0  0  0  0  0  0  0  0  0
   27.6650   50.0850   -9.4050 N   0  0  0  0  0  0  0  0  0  0  0  0
   27.9710   51.1310   -8.6780 C   0  0  0  0  0  0  0  0  0  0  0  0
  2  1  1  0
  3  2  1  0
  4  2  1  6
  5  4  1  0
  6  5  1  0
  7  6  1  0
  8  7  1  6
  8  4  1  0
  9  8  1  0
  9 10  1  1
 11 10  1  0
 12  9  1  0
 13 12  1  0
 14 13  1  0
 15 14  1  0
 16 11  1  6
 16 13  1  0
 17 16  1  0
 18 17  1  0
 18 14  1  0
M  END
$$$$
Mac1-x10186_0A
     RDKit          3D

 18 20  0  0  0  0  0  0  0  0999 V2000
   32.8060   46.9620   -7.8330 O   0  0  0  0  0  0  0  0  0  0  0  0
   31.8780   46.2140   -7.6300 C   0  0  0  0  0  0  0  0  0  0  0  0
   31.2280   45.6460   -8.5770 O   0  0  0  0  0  0  0  0  0  0  0  0
   31.3760   45.9010   -6.2420 C   0  0  1  0  0  0  0  0  0  0  0  0
   30.0140   46.5420   -5.8450 C   0  0  2  0  0  0  0  0  0  0  0  0
   29.1020   45.3220   -5.6110 C   0  0  0  0  0  0  0  0  0  0  0  0
   30.0290   44.2490   -5.0770 C   0  0  0  0  0  0  0  0  0  0  0  0
   31.2600   44.3880   -5.9380 C   0  0  0  0  0  0  0  0  0  0  0  0
   29.4300   47.5730   -6.8130 C   0  0  2  0  0  0  0  0  0  0  0  0
   29.4720   48.9150   -6.4450 C   0  0  0  0  0  0  0  0  0  0  0  0
   28.8770   49.8610   -7.2840 C   0  0  0  0  0  0  0  0  0  0  0  0
   28.9240   51.1970   -6.9380 N   0  0  0  0  0  0  0  0  0  0  0  0
   28.3190   52.2190   -7.7430 C   0  0  0  0  0  0  0  0  0  0  0  0
   27.7850   51.8130   -9.0740 C   0  0  0  0  0  0  0  0  0  0  0  0
   27.8130   50.4210   -9.3800 N   0  0  0  0  0  0  0  0  0  0  0  0
   28.2680   49.4740   -8.4880 C   0  0  1  0  0  0  0  0  0  0  0  0
   28.2310   48.1310   -8.8360 C   0  0  0  0  0  0  0  0  0  0  0  0
   28.8050   47.1980   -7.9990 C   0  0  0  0  0  0  0  0  0  0  0  0
  2  1  1  0
  3  2  1  0
  4  2  1  6
  5  4  1  0
  5  6  1  6
  7  6  1  0
  8  4  1  0
  8  7  1  0
  9  5  1  0
  9 10  1  1
 11 10  1  0
 12 11  1  0
 13 12  1  0
 14 13  1  0
 15 14  1  0
 16 15  1  0
 16 11  1  0
 16 17  1  6
 18 17  1  0
 18  9  1  0
M  END
$$$$
Mac1-x10199_0A
     RDKit          3D

 17 19  0  0  0  0  0  0  0  0999 V2000
   31.2320   45.6740   -8.5890 O   0  0  0  0  0  0  0  0  0  0  0  0
   31.8480   46.1320   -7.6940 C   0  0  0  0  0  0  0  0  0  0  0  0
   32.8920   46.8530   -7.8730 O   0  0  0  0  0  0  0  0  0  0  0  0
   31.4510   45.8890   -6.2620 C   0  0  1  0  0  0  0  0  0  0  0  0
   30.1040   46.5310   -5.7990 C   0  0  2  0  0  0  0  0  0  0  0  0
   29.1680   45.3220   -5.6420 C   0  0  0  0  0  0  0  0  0  0  0  0
   30.0600   44.2140   -5.1650 C   0  0  0  0  0  0  0  0  0  0  0  0
   31.2960   44.3680   -6.0140 C   0  0  0  0  0  0  0  0  0  0  0  0
   29.5300   47.6140   -6.7040 C   0  0  2  0  0  0  0  0  0  0  0  0
   29.6300   48.9580   -6.3380 C   0  0  0  0  0  0  0  0  0  0  0  0
   29.0020   49.9190   -7.1320 C   0  0  0  0  0  0  0  0  0  0  0  0
   28.9010   51.3020   -7.0100 N   0  0  0  0  0  0  0  0  0  0  0  0
   28.1970   51.6730   -8.0200 C   0  0  0  0  0  0  0  0  0  0  0  0
   27.7980   50.6290   -8.8820 O   0  0  0  0  0  0  0  0  0  0  0  0
   28.3240   49.5200   -8.2620 C   0  0  0  0  0  0  0  0  0  0  0  0
   28.2190   48.2120   -8.6650 C   0  0  0  0  0  0  0  0  0  0  0  0
   28.8330   47.2620   -7.8650 C   0  0  0  0  0  0  0  0  0  0  0  0
  2  1  1  0
  3  2  1  0
  4  2  1  6
  5  4  1  0
  5  6  1  6
  7  6  1  0
  8  4  1  0
  8  7  1  0
  9  5  1  0
  9 10  1  1
 11 10  1  0
 12 11  1  0
 13 12  1  0
 14 13  1  0
 15 14  1  0
 15 11  1  0
 16 15  1  0
 17 16  1  0
 17  9  1  0
M  END
$$$$
Mac1-DLS-EU0046_0A
     RDKit          3D

  9  9  0  0  0  0  0  0  0  0999 V2000
   30.3230   48.4150   -5.7320 N   0  0  0  0  0  0  0  0  0  0  0  0
   29.7040   48.9230   -6.5500 C   0  0  0  0  0  0  0  0  0  0  0  0
   28.9400   49.5100   -7.6020 C   0  0  2  0  0  0  0  0  0  0  0  0
   28.2880   48.9010   -8.7080 C   0  0  0  0  0  0  0  0  0  0  0  0
   28.1240   47.4460   -9.0030 C   0  0  0  0  0  0  0  0  0  0  0  0
   28.7750   50.9000   -7.8120 C   0  0  0  0  0  0  0  0  0  0  0  0
   29.2110   51.8940   -7.0630 N   0  0  0  0  0  0  0  0  0  0  0  0
   28.0730   51.0510   -8.9820 N   0  0  0  0  0  0  0  0  0  0  0  0
   27.7850   49.8260   -9.5300 N   0  0  0  0  0  0  0  0  0  0  0  0
  2  1  1  0
  3  2  1  6
  4  3  1  0
  5  4  1  0
  6  3  1  0
  7  6  1  0
  8  6  1  0
  9  4  1  0
  9  8  1  0
M  END
$$$$
Mac1-DLS-EU0046_0B
     RDKit          3D

  9  9  0  0  0  0  0  0  0  0999 V2000
   23.9100   61.3670    0.7690 N   0  0  0  0  0  0  0  0  0  0  0  0
   23.3620   60.3600    0.7020 C   0  0  0  0  0  0  0  0  0  0  0  0
   22.6320   59.1330    0.5850 C   0  0  1  0  0  0  0  0  0  0  0  0
   21.3560   58.8880    0.0080 C   0  0  0  0  0  0  0  0  0  0  0  0
   20.3950   59.8780   -0.5660 C   0  0  0  0  0  0  0  0  0  0  0  0
   23.1010   57.8420    0.9620 C   0  0  0  0  0  0  0  0  0  0  0  0
   24.2410   57.5250    1.5680 N   0  0  0  0  0  0  0  0  0  0  0  0
   22.1290   56.9200    0.5890 N   0  0  0  0  0  0  0  0  0  0  0  0
   21.0750   57.5760    0.0110 N   0  0  0  0  0  0  0  0  0  0  0  0
  2  1  1  0
  3  2  1  6
  4  3  1  0
  5  4  1  0
  6  3  1  0
  7  6  1  0
  8  6  1  0
  9  4  1  0
  9  8  1  0
M  END
$$$$
Mac1-DLS-EU0056_0A
     RDKit          3D

  9  9  0  0  0  0  0  0  0  0999 V2000
   28.3400   50.9740   -8.0450 Br  0  0  0  0  0  0  0  0  0  0  0  0
   28.5950   52.7780   -7.5400 C   0  0  1  0  0  0  0  0  0  0  0  0
   28.1520   53.7870   -8.3680 C   0  0  0  0  0  0  0  0  0  0  0  0
   29.1390   53.0770   -6.3090 C   0  0  0  0  0  0  0  0  0  0  0  0
   29.2440   54.3360   -5.8740 N   0  0  0  0  0  0  0  0  0  0  0  0
   28.7990   55.3080   -6.6760 C   0  0  0  0  0  0  0  0  0  0  0  0
   28.2350   55.1020   -7.9250 C   0  0  2  0  0  0  0  0  0  0  0  0
   27.6630   56.2440   -8.7350 C   0  0  0  0  0  0  0  0  0  0  0  0
   28.7420   56.9200   -9.4540 N   0  0  0  0  0  0  0  0  0  0  0  0
  2  1  1  1
  3  2  1  0
  4  2  1  0
  5  4  1  0
  6  5  1  0
  7  3  1  0
  7  6  1  0
  7  8  1  1
  9  8  1  0
M  END
$$$$
Mac1-DLS-EU0087_0A
     RDKit          3D

  9  9  0  0  0  0  0  0  0  0999 V2000
   29.1710   51.7370   -6.6380 O   0  0  0  0  0  0  0  0  0  0  0  0
   28.7700   52.1470   -7.7210 C   0  0  0  0  0  0  0  0  0  0  0  0
   28.6840   53.6090   -8.0410 C   0  0  0  0  0  0  0  0  0  0  0  0
   28.3740   51.3050   -8.7190 N   0  0  0  0  0  0  0  0  0  0  0  0
   28.4810   49.9270   -8.7060 C   0  0  0  0  0  0  0  0  0  0  0  0
   29.1310   49.0040   -7.3800 S   0  0  0  0  0  0  0  0  0  0  0  0
   28.8960   47.5630   -8.3170 C   0  0  0  0  0  0  0  0  0  0  0  0
   28.3620   47.8760   -9.5180 C   0  0  0  0  0  0  0  0  0  0  0  0
   28.1270   49.2170   -9.7540 N   0  0  0  0  0  0  0  0  0  0  0  0
  2  1  1  0
  3  2  1  0
  4  2  1  0
  5  4  1  0
  6  5  1  0
  7  6  1  0
  8  7  1  0
  9  8  1  0
  9  5  1  0
M  END
$$$$
Mac1-DLS-EU0123_0A
     RDKit          3D

  9  9  0  0  0  0  0  0  0  0999 V2000
   28.2490   51.0130   -8.3660 C   0  0  0  0  0  0  0  0  0  0  0  0
   28.6550   51.8350   -7.1810 C   0  0  0  0  0  0  0  0  0  0  0  0
   28.8910   53.2160   -7.2950 C   0  0  1  0  0  0  0  0  0  0  0  0
   28.6750   53.9480   -8.5900 C   0  0  0  0  0  0  0  0  0  0  0  0
   27.2950   54.2420   -8.8020 O   0  0  0  0  0  0  0  0  0  0  0  0
   29.1880   53.9310   -6.1390 C   0  0  0  0  0  0  0  0  0  0  0  0
   29.2290   53.3760   -4.9210 N   0  0  0  0  0  0  0  0  0  0  0  0
   29.0640   52.0520   -4.8450 C   0  0  0  0  0  0  0  0  0  0  0  0
   28.7640   51.2510   -5.9280 C   0  0  0  0  0  0  0  0  0  0  0  0
  2  1  1  0
  3  2  1  0
  3  4  1  1
  5  4  1  0
  6  3  1  0
  7  6  1  0
  8  7  1  0
  9  2  1  0
  9  8  1  0
M  END
$$$$
Mac1-DLS-EU0144_0A
     RDKit          3D

  9  9  0  0  0  0  0  0  0  0999 V2000
   29.8640   49.6710   -5.6250 N   0  0  0  0  0  0  0  0  0  0  0  0
   29.5620   50.6890   -6.0490 C   0  0  0  0  0  0  0  0  0  0  0  0
   29.1730   51.9370   -6.6210 C   0  0  2  0  0  0  0  0  0  0  0  0
   29.5740   53.1460   -6.0990 N   0  0  0  0  0  0  0  0  0  0  0  0
   28.3430   52.1550   -7.6540 C   0  0  0  0  0  0  0  0  0  0  0  0
   27.6410   51.3660   -8.4680 N   0  0  0  0  0  0  0  0  0  0  0  0
   28.2080   53.5020   -7.8230 O   0  0  0  0  0  0  0  0  0  0  0  0
   28.9850   54.0280   -6.8260 C   0  0  1  0  0  0  0  0  0  0  0  0
   28.9930   55.4960   -6.6400 C   0  0  0  0  0  0  0  0  0  0  0  0
  2  1  1  0
  3  2  1  1
  4  3  1  0
  5  3  1  0
  6  5  1  0
  7  5  1  0
  8  7  1  0
  8  4  1  0
  8  9  1  1
M  END
$$$$
Mac1-DLS-EU0172_0A
     RDKit          3D

 10 10  0  0  0  0  0  0  0  0999 V2000
   28.1230   55.9650   -9.3140 N   0  0  0  0  0  0  0  0  0  0  0  0
   27.9110   54.7350   -8.5430 C   0  0  0  0  0  0  0  0  0  0  0  0
   29.2240   53.9940   -8.3760 C   0  0  0  0  0  0  0  0  0  0  0  0
   29.0890   52.7840   -7.5410 N   0  0  0  0  0  0  0  0  0  0  0  0
   28.9240   51.5590   -8.1190 C   0  0  0  0  0  0  0  0  0  0  0  0
   28.8110   50.4520   -7.3660 C   0  0  0  0  0  0  0  0  0  0  0  0
   28.8220   50.5550   -5.9670 C   0  0  0  0  0  0  0  0  0  0  0  0
   28.9450   51.7600   -5.3750 C   0  0  0  0  0  0  0  0  0  0  0  0
   29.0970   52.9510   -6.1450 C   0  0  0  0  0  0  0  0  0  0  0  0
   29.2300   54.0890   -5.6660 O   0  0  0  0  0  0  0  0  0  0  0  0
  2  1  1  0
  3  2  1  0
  4  3  1  0
  5  4  1  0
  6  5  1  0
  7  6  1  0
  8  7  1  0
  9  4  1  0
  9  8  1  0
 10  9  1  0
M  END
$$$$
Mac1-DLS-EU0238_0A
     RDKit          3D

 10 10  0  0  0  0  0  0  0  0999 V2000
   29.2460   54.6040   -6.7540 N   0  0  0  0  0  0  0  0  0  0  0  0
   28.7260   53.8350   -7.9030 C   0  0  0  0  0  0  0  0  0  0  0  0
   28.8370   52.3490   -7.6560 C   0  0  0  0  0  0  0  0  0  0  0  0
   28.3190   51.5530   -8.6330 N   0  0  0  0  0  0  0  0  0  0  0  0
   28.4620   50.1790   -8.6690 C   0  0  0  0  0  0  0  0  0  0  0  0
   28.1280   49.4880   -9.7320 N   0  0  0  0  0  0  0  0  0  0  0  0
   28.2830   48.1410   -9.4700 C   0  0  0  0  0  0  0  0  0  0  0  0
   28.7180   47.8350   -8.2360 C   0  0  0  0  0  0  0  0  0  0  0  0
   29.1410   49.2620   -7.3630 S   0  0  0  0  0  0  0  0  0  0  0  0
   29.3420   51.8920   -6.6460 O   0  0  0  0  0  0  0  0  0  0  0  0
  2  1  1  0
  3  2  1  0
  4  3  1  0
  5  4  1  0
  6  5  1  0
  7  6  1  0
  8  7  1  0
  9  8  1  0
  9  5  1  0
 10  3  1  0
M  CHG  1   1   1
M  END
$$$$
Mac1-DLS-EU0241_0A
     RDKit          3D

 10 11  0  0  0  0  0  0  0  0999 V2000
   29.7490   46.4520   -8.1360 N   0  0  0  0  0  0  0  0  0  0  0  0
   29.2130   47.7130   -8.1980 C   0  0  1  0  0  0  0  0  0  0  0  0
   29.4520   48.6310   -7.1750 C   0  0  0  0  0  0  0  0  0  0  0  0
   29.0110   49.9490   -7.3080 C   0  0  0  0  0  0  0  0  0  0  0  0
   28.3080   50.3150   -8.4800 C   0  0  0  0  0  0  0  0  0  0  0  0
   28.0120   49.5110   -9.5320 N   0  0  0  0  0  0  0  0  0  0  0  0
   28.4360   48.2380   -9.4170 C   0  0  0  0  0  0  0  0  0  0  0  0
   29.1060   51.1560   -6.5720 C   0  0  0  0  0  0  0  0  0  0  0  0
   28.5200   52.1530   -7.2090 N   0  0  0  0  0  0  0  0  0  0  0  0
   28.0290   51.6320   -8.3760 N   0  0  0  0  0  0  0  0  0  0  0  0
  2  1  1  6
  3  2  1  0
  4  3  1  0
  5  4  1  0
  6  5  1  0
  7  2  1  0
  7  6  1  0
  8  4  1  0
  9  8  1  0
 10  9  1  0
 10  5  1  0
M  END
$$$$
Mac1-DLS-EU0291_0A
     RDKit          3D

 11 12  0  0  0  0  0  0  0  0999 V2000
   29.4570   50.2170   -5.3840 O   0  0  0  0  0  0  0  0  0  0  0  0
   29.1110   50.4580   -6.5380 C   0  0  2  0  0  0  0  0  0  0  0  0
   28.7720   51.7440   -6.9000 N   0  0  0  0  0  0  0  0  0  0  0  0
   28.3110   52.0510   -8.1320 C   0  0  0  0  0  0  0  0  0  0  0  0
   28.1460   51.1940   -9.0790 N   0  0  0  0  0  0  0  0  0  0  0  0
   28.4570   49.8540   -8.8270 C   0  0  0  0  0  0  0  0  0  0  0  0
   28.9460   49.4370   -7.5660 C   0  0  0  0  0  0  0  0  0  0  0  0
   29.2880   48.0760   -7.3390 C   0  0  0  0  0  0  0  0  0  0  0  0
   29.0840   47.1630   -8.3410 C   0  0  0  0  0  0  0  0  0  0  0  0
   28.5550   47.5810   -9.5770 C   0  0  0  0  0  0  0  0  0  0  0  0
   28.3090   48.8990   -9.8390 C   0  0  0  0  0  0  0  0  0  0  0  0
  2  1  1  1
  3  2  1  0
  4  3  1  0
  5  4  1  0
  6  5  1  0
  7  6  1  0
  7  2  1  0
  8  7  1  0
  9  8  1  0
 10  9  1  0
 11 10  1  0
 11  6  1  0
M  END
$$$$
Mac1-DLS-EU0293_0A
     RDKit          3D

 11 12  0  0  0  0  0  0  0  0999 V2000
   29.7210   46.2720   -8.1750 N   0  0  0  0  0  0  0  0  0  0  0  0
   29.2590   47.5340   -8.3460 C   0  0  0  0  0  0  0  0  0  0  0  0
   29.4580   48.4880   -7.3490 C   0  0  0  0  0  0  0  0  0  0  0  0
   29.0360   49.7970   -7.5640 C   0  0  0  0  0  0  0  0  0  0  0  0
   29.2470   50.8620   -6.5280 C   0  0  0  0  0  0  0  0  0  0  0  0
   29.1640   52.1610   -7.1140 O   0  0  0  0  0  0  0  0  0  0  0  0
   27.9260   52.3390   -7.7970 C   0  0  0  0  0  0  0  0  0  0  0  0
   27.8900   51.4910   -9.0480 C   0  0  0  0  0  0  0  0  0  0  0  0
   28.3780   50.0950   -8.7660 C   0  0  1  0  0  0  0  0  0  0  0  0
   28.2010   49.1880   -9.7570 N   0  0  0  0  0  0  0  0  0  0  0  0
   28.5850   47.9220   -9.5250 C   0  0  0  0  0  0  0  0  0  0  0  0
  2  1  1  0
  3  2  1  0
  4  3  1  0
  5  4  1  0
  6  5  1  0
  7  6  1  0
  8  7  1  0
  9  8  1  6
  9  4  1  0
 10  9  1  0
 11  2  1  0
 11 10  1  0
M  END
$$$$
Mac1-DLS-EU0342_0A
     RDKit          3D

 11 11  0  0  0  0  0  0  0  0999 V2000
   27.9800   46.8890   -8.9410 C   0  0  0  0  0  0  0  0  0  0  0  0
   28.4280   48.0240   -8.1520 N   0  0  0  0  0  0  0  0  0  0  0  0
   28.3460   49.2670   -8.6290 C   0  0  0  0  0  0  0  0  0  0  0  0
   28.5530   50.3970   -7.6660 C   0  0  0  0  0  0  0  0  0  0  0  0
   28.9790   50.1700   -6.3530 C   0  0  0  0  0  0  0  0  0  0  0  0
   29.1590   51.2130   -5.4960 C   0  0  0  0  0  0  0  0  0  0  0  0
   28.3310   51.6920   -8.0820 C   0  0  0  0  0  0  0  0  0  0  0  0
   28.5100   52.7200   -7.2210 N   0  0  0  0  0  0  0  0  0  0  0  0
   28.9160   52.5530   -5.9240 C   0  0  0  0  0  0  0  0  0  0  0  0
   29.0620   53.5730   -5.1980 O   0  0  0  0  0  0  0  0  0  0  0  0
   28.1140   49.4830   -9.8210 O   0  0  0  0  0  0  0  0  0  0  0  0
  2  1  1  0
  3  2  1  0
  4  3  1  0
  5  4  1  0
  6  5  1  0
  7  4  1  0
  8  7  1  0
  9  8  1  0
  9  6  1  0
 10  9  1  0
 11  3  1  0
M  END
$$$$
Mac1-DLS-EU0424_0A
     RDKit          3D

 12 12  0  0  0  0  0  0  0  0999 V2000
   28.7640   53.6160   -4.9960 O   0  0  0  0  0  0  0  0  0  0  0  0
   28.8860   54.1650   -6.0920 C   0  0  0  0  0  0  0  0  0  0  0  0
   28.7960   55.6510   -6.2550 C   0  0  0  0  0  0  0  0  0  0  0  0
   29.1020   53.4640   -7.2390 N   0  0  0  0  0  0  0  0  0  0  0  0
   29.0620   52.0710   -7.3080 C   0  0  2  0  0  0  0  0  0  0  0  0
   28.2070   51.5920   -8.3990 C   0  0  0  0  0  0  0  0  0  0  0  0
   27.6400   52.3510   -9.1730 O   0  0  0  0  0  0  0  0  0  0  0  0
   28.0460   50.2370   -8.4840 N   0  0  0  0  0  0  0  0  0  0  0  0
   28.6190   49.3620   -7.6210 C   0  0  0  0  0  0  0  0  0  0  0  0
   29.4050   49.8220   -6.6390 C   0  0  0  0  0  0  0  0  0  0  0  0
   30.1910   48.5790   -5.4540 Br  0  0  0  0  0  0  0  0  0  0  0  0
   29.6530   51.1900   -6.4650 C   0  0  0  0  0  0  0  0  0  0  0  0
  2  1  1  0
  3  2  1  0
  4  2  1  0
  5  4  1  1
  6  5  1  0
  7  6  1  0
  8  6  1  0
  9  8  1  0
 10  9  1  0
 11 10  1  0
 12 10  1  0
 12  5  1  0
M  END
$$$$
Mac1-DLS-EU0481_0A
     RDKit          3D

 12 13  0  0  0  0  0  0  0  0999 V2000
   28.6690   56.5000   -9.6630 N   0  0  0  0  0  0  0  0  0  0  0  0
   27.8540   56.2090   -8.4850 C   0  0  0  0  0  0  0  0  0  0  0  0
   28.3950   54.9930   -7.7710 C   0  0  1  0  0  0  0  0  0  0  0  0
   28.9480   55.0820   -6.4990 C   0  0  0  0  0  0  0  0  0  0  0  0
   29.3000   54.0550   -5.7530 N   0  0  0  0  0  0  0  0  0  0  0  0
   29.1070   52.7980   -6.2730 C   0  0  0  0  0  0  0  0  0  0  0  0
   28.5920   52.6020   -7.5660 C   0  0  2  0  0  0  0  0  0  0  0  0
   28.2480   53.7430   -8.3070 C   0  0  0  0  0  0  0  0  0  0  0  0
   29.3890   51.6720   -5.4690 C   0  0  0  0  0  0  0  0  0  0  0  0
   29.1770   50.4130   -5.9520 C   0  0  0  0  0  0  0  0  0  0  0  0
   28.6800   50.2200   -7.2270 C   0  0  0  0  0  0  0  0  0  0  0  0
   28.3880   51.2840   -8.0270 C   0  0  0  0  0  0  0  0  0  0  0  0
  2  1  1  0
  3  2  1  1
  4  3  1  0
  5  4  1  0
  6  5  1  0
  7  6  1  0
  7  8  1  1
  8  3  1  0
  9  6  1  0
 10  9  1  0
 11 10  1  0
 12 11  1  0
 12  7  1  0
M  END
$$$$
Mac1-DLS-EU0526_0A
     RDKit          3D

 12 13  0  0  0  0  0  0  0  0999 V2000
   14.4410   48.6160  -21.6710 N   0  0  0  0  0  0  0  0  0  0  0  0
   13.6810   47.3570  -21.9340 C   0  0  1  0  0  0  0  0  0  0  0  0
   14.3890   46.1980  -21.2620 C   0  0  2  0  0  0  0  0  0  0  0  0
   15.7790   46.1250  -21.3250 C   0  0  0  0  0  0  0  0  0  0  0  0
   16.4600   45.0890  -20.7170 C   0  0  0  0  0  0  0  0  0  0  0  0
   15.7790   44.0940  -20.0420 C   0  0  0  0  0  0  0  0  0  0  0  0
   14.3990   44.1310  -19.9940 C   0  0  0  0  0  0  0  0  0  0  0  0
   13.7330   43.1280  -19.3480 O   0  0  0  0  0  0  0  0  0  0  0  0
   13.6770   45.1650  -20.6300 C   0  0  1  0  0  0  0  0  0  0  0  0
   12.1640   45.1920  -20.5600 C   0  0  0  0  0  0  0  0  0  0  0  0
   11.5170   46.1810  -21.5110 C   0  0  0  0  0  0  0  0  0  0  0  0
   12.2420   47.5000  -21.4300 C   0  0  0  0  0  0  0  0  0  0  0  0
  2  1  1  1
  3  2  1  0
  3  4  1  6
  5  4  1  0
  6  5  1  0
  7  6  1  0
  8  7  1  0
  9  7  1  0
  9  3  1  0
  9 10  1  1
 11 10  1  0
 12  2  1  0
 12 11  1  0
M  CHG  1   1   1
M  END
$$$$
Mac1-DLS-EU0569_0A
     RDKit          3D

 13 14  0  0  0  0  0  0  0  0999 V2000
   27.6120   57.3470   -7.7670 O   0  0  0  0  0  0  0  0  0  0  0  0
   27.5280   56.2680   -8.3800 C   0  0  0  0  0  0  0  0  0  0  0  0
   26.8180   56.1580   -9.4990 N   0  0  0  0  0  0  0  0  0  0  0  0
   28.1990   55.0430   -7.8480 C   0  0  1  0  0  0  0  0  0  0  0  0
   28.8880   55.1920   -6.5220 C   0  0  0  0  0  0  0  0  0  0  0  0
   28.9270   53.9840   -5.7340 O   0  0  0  0  0  0  0  0  0  0  0  0
   28.8780   52.7660   -6.3680 C   0  0  0  0  0  0  0  0  0  0  0  0
   28.5850   52.6500   -7.7290 C   0  0  2  0  0  0  0  0  0  0  0  0
   28.1330   53.8230   -8.4160 C   0  0  0  0  0  0  0  0  0  0  0  0
   29.1240   51.6470   -5.5940 C   0  0  0  0  0  0  0  0  0  0  0  0
   29.1070   50.3940   -6.1830 C   0  0  0  0  0  0  0  0  0  0  0  0
   28.8560   50.2620   -7.5250 C   0  0  0  0  0  0  0  0  0  0  0  0
   28.6000   51.3780   -8.3010 C   0  0  0  0  0  0  0  0  0  0  0  0
  2  1  1  0
  3  2  1  0
  4  2  1  1
  5  4  1  0
  6  5  1  0
  7  6  1  0
  8  7  1  0
  8  9  1  1
  9  4  1  0
 10  7  1  0
 11 10  1  0
 12 11  1  0
 13 12  1  0
 13  8  1  0
M  END
$$$$
Mac1-DLS-EU0704_0A
     RDKit          3D

 14 15  0  0  0  0  0  0  0  0999 V2000
   27.0640   56.9370   -7.4430 O   0  0  0  0  0  0  0  0  0  0  0  0
   27.2770   56.1730   -8.3860 C   0  0  1  0  0  0  0  0  0  0  0  0
   26.5310   56.1580   -9.4860 N   0  0  0  0  0  0  0  0  0  0  0  0
   25.9810   57.3640  -10.0780 C   0  0  0  0  0  0  0  0  0  0  0  0
   28.5310   55.3130   -8.4560 C   0  0  0  0  0  0  0  0  0  0  0  0
   28.6540   54.3630   -7.3500 N   0  0  0  0  0  0  0  0  0  0  0  0
   28.8820   54.6470   -6.0350 C   0  0  0  0  0  0  0  0  0  0  0  0
   29.0370   53.5850   -5.2810 N   0  0  0  0  0  0  0  0  0  0  0  0
   28.9040   52.5120   -6.1640 C   0  0  0  0  0  0  0  0  0  0  0  0
   28.6620   52.9810   -7.4560 C   0  0  0  0  0  0  0  0  0  0  0  0
   28.9640   51.1410   -5.9310 C   0  0  0  0  0  0  0  0  0  0  0  0
   28.7740   50.2760   -6.9970 C   0  0  0  0  0  0  0  0  0  0  0  0
   28.5210   50.7620   -8.2740 C   0  0  0  0  0  0  0  0  0  0  0  0
   28.4670   52.1220   -8.5260 C   0  0  0  0  0  0  0  0  0  0  0  0
  2  1  1  6
  3  2  1  0
  4  3  1  0
  5  2  1  0
  6  5  1  0
  7  6  1  0
  8  7  1  0
  9  8  1  0
 10  9  1  0
 10  6  1  0
 11  9  1  0
 12 11  1  0
 13 12  1  0
 14 13  1  0
 14 10  1  0
M  END
$$$$
Mac1-DLS-EU0716_0A
     RDKit          3D

 15 15  0  0  0  0  0  0  0  0999 V2000
   27.4740   56.8490   -5.4950 C   0  0  0  0  0  0  0  0  0  0  0  0
   28.6330   56.1330   -6.1760 C   0  0  0  0  0  0  0  0  0  0  0  0
   28.1940   55.0790   -7.1560 C   0  0  1  0  0  0  0  0  0  0  0  0
   27.5580   55.3110   -8.3900 C   0  0  2  0  0  0  0  0  0  0  0  0
   26.9800   56.5120   -9.0110 C   0  0  1  0  0  0  0  0  0  0  0  0
   26.7380   56.4770  -10.3160 N   0  0  0  0  0  0  0  0  0  0  0  0
   26.1460   57.6010  -11.0110 C   0  0  0  0  0  0  0  0  0  0  0  0
   26.6650   57.4950   -8.3360 O   0  0  0  0  0  0  0  0  0  0  0  0
   27.3750   54.0650   -8.9810 N   0  0  0  0  0  0  0  0  0  0  0  0
   27.9320   53.0930   -8.2350 C   0  0  2  0  0  0  0  0  0  0  0  0
   27.8480   51.6620   -8.6550 C   0  0  0  0  0  0  0  0  0  0  0  0
   28.4620   53.6830   -7.0960 C   0  0  2  0  0  0  0  0  0  0  0  0
   29.0850   52.9130   -6.0250 C   0  0  2  0  0  0  0  0  0  0  0  0
   29.6080   51.5430   -6.3280 C   0  0  0  0  0  0  0  0  0  0  0  0
   29.0680   53.3330   -4.8590 O   0  0  0  0  0  0  0  0  0  0  0  0
  2  1  1  0
  3  2  1  6
  4  3  1  0
  5  4  1  0
  6  5  1  0
  7  6  1  0
  5  8  1  1
  4  9  1  1
 10  9  1  0
 10 11  1  1
 12 10  1  0
 12  3  1  0
 12 13  1  1
 13 14  1  1
 15 13  1  0
M  END
$$$$
Mac1-DLS-EU0744_0B
     RDKit          3D

 15 16  0  0  0  0  0  0  0  0999 V2000
    3.3860   42.4700   11.7340 N   0  0  0  0  0  0  0  0  0  0  0  0
    2.9150   43.8390   11.5080 C   0  0  0  0  0  0  0  0  0  0  0  0
    4.0390   44.8630   11.4730 C   0  0  0  0  0  0  0  0  0  0  0  0
    5.2090   44.4570   10.5990 C   0  0  0  0  0  0  0  0  0  0  0  0
    6.3620   43.9550   11.3920 N   0  0  0  0  0  0  0  0  0  0  0  0
    7.4420   44.8190   11.7280 C   0  0  0  0  0  0  0  0  0  0  0  0
    7.4470   46.1810   11.4080 C   0  0  0  0  0  0  0  0  0  0  0  0
    8.5600   46.9680   11.6890 C   0  0  0  0  0  0  0  0  0  0  0  0
    9.6660   46.4130   12.3150 C   0  0  0  0  0  0  0  0  0  0  0  0
    9.6560   45.0880   12.6970 C   0  0  0  0  0  0  0  0  0  0  0  0
    8.5670   44.2920   12.3710 C   0  0  0  0  0  0  0  0  0  0  0  0
    8.6500   42.9730   12.7150 O   0  0  0  0  0  0  0  0  0  0  0  0
    7.4740   42.1820   12.6620 C   0  0  0  0  0  0  0  0  0  0  0  0
    6.3730   42.6350   11.7490 C   0  0  0  0  0  0  0  0  0  0  0  0
    5.5160   41.8600   11.3770 O   0  0  0  0  0  0  0  0  0  0  0  0
  2  1  1  0
  3  2  1  0
  4  3  1  0
  5  4  1  0
  6  5  1  0
  7  6  1  0
  8  7  1  0
  9  8  1  0
 10  9  1  0
 11 10  1  0
 11  6  1  0
 12 11  1  0
 13 12  1  0
 14 13  1  0
 14  5  1  0
 15 14  1  0
M  END
$$$$
Mac1-DLS-EU0815_0A
     RDKit          3D

 16 16  0  0  0  0  0  0  0  0999 V2000
   28.0880   58.6810  -10.1560 C   0  0  0  0  0  0  0  0  0  0  0  0
   27.0770   57.7040   -9.5850 C   0  0  1  0  0  0  0  0  0  0  0  0
   25.8300   57.6260  -10.4270 C   0  0  0  0  0  0  0  0  0  0  0  0
   25.0900   58.8340  -10.4220 O   0  0  0  0  0  0  0  0  0  0  0  0
   27.6690   56.3720   -9.5260 N   0  0  0  0  0  0  0  0  0  0  0  0
   27.7970   55.6380   -8.4020 C   0  0  0  0  0  0  0  0  0  0  0  0
   28.1320   54.3370   -8.6690 N   0  0  0  0  0  0  0  0  0  0  0  0
   28.5130   53.2780   -7.8220 C   0  0  0  0  0  0  0  0  0  0  0  0
   28.8170   53.4260   -6.4730 C   0  0  0  0  0  0  0  0  0  0  0  0
   29.1430   52.3040   -5.7500 C   0  0  0  0  0  0  0  0  0  0  0  0
   29.3930   52.4610   -4.4280 F   0  0  0  0  0  0  0  0  0  0  0  0
   29.2340   51.0480   -6.3110 C   0  0  0  0  0  0  0  0  0  0  0  0
   29.6080   49.8400   -5.5070 C   0  0  0  0  0  0  0  0  0  0  0  0
   28.9370   50.9190   -7.6610 C   0  0  0  0  0  0  0  0  0  0  0  0
   28.5870   52.0230   -8.4130 C   0  0  0  0  0  0  0  0  0  0  0  0
   27.6390   56.1070   -7.2680 O   0  0  0  0  0  0  0  0  0  0  0  0
  2  1  1  6
  3  2  1  0
  4  3  1  0
  5  2  1  0
  6  5  1  0
  7  6  1  0
  8  7  1  0
  9  8  1  0
 10  9  1  0
 11 10  1  0
 12 10  1  0
 13 12  1  0
 14 12  1  0
 15 14  1  0
 15  8  1  0
 16  6  1  0
M  END
$$$$
Mac1-DLS-EU0844_0A
     RDKit          3D

 16 17  0  0  0  0  0  0  0  0999 V2000
   26.7210   57.2990   -7.8590 O   0  0  0  0  0  0  0  0  0  0  0  0
   27.3660   56.5250   -8.5600 C   0  0  0  0  0  0  0  0  0  0  0  0
   27.4180   56.6390   -9.8850 N   0  0  0  0  0  0  0  0  0  0  0  0
   26.7280   57.7010  -10.5960 C   0  0  0  0  0  0  0  0  0  0  0  0
   28.1150   55.3700   -7.9630 C   0  0  1  0  0  0  0  0  0  0  0  0
   28.8030   55.4660   -6.7160 C   0  0  2  0  0  0  0  0  0  0  0  0
   29.0410   56.7670   -6.0090 C   0  0  0  0  0  0  0  0  0  0  0  0
   27.8800   54.1320   -8.4980 C   0  0  0  0  0  0  0  0  0  0  0  0
   28.3760   52.9880   -7.8610 C   0  0  1  0  0  0  0  0  0  0  0  0
   29.1200   53.1650   -6.6860 C   0  0  1  0  0  0  0  0  0  0  0  0
   29.3280   54.4040   -6.1290 N   0  0  0  0  0  0  0  0  0  0  0  0
   28.0860   51.6770   -8.2890 C   0  0  0  0  0  0  0  0  0  0  0  0
   28.4850   50.6030   -7.5620 C   0  0  0  0  0  0  0  0  0  0  0  0
   29.1910   50.8060   -6.4120 C   0  0  2  0  0  0  0  0  0  0  0  0
   29.3960   49.7450   -5.5900 F   0  0  0  0  0  0  0  0  0  0  0  0
   29.5690   52.0270   -5.9800 C   0  0  0  0  0  0  0  0  0  0  0  0
  2  1  1  0
  3  2  1  0
  4  3  1  0
  5  2  1  1
  6  5  1  0
  6  7  1  6
  8  5  1  0
  9  8  1  1
 10  9  1  0
 11 10  1  0
 11  6  1  0
 12  9  1  0
 13 12  1  0
 14 13  1  0
 14 15  1  1
 16 14  1  0
 10 16  1  1
M  END
$$$$
Mac1-DLS-EU0860_0A
     RDKit          3D

 16 17  0  0  0  0  0  0  0  0999 V2000
   38.9100   42.2060   -3.2970 O   0  0  0  0  0  0  0  0  0  0  0  0
   37.7940   42.4490   -2.8370 C   0  0  0  0  0  0  0  0  0  0  0  0
   37.0090   43.6290   -3.3150 C   0  0  0  0  0  0  0  0  0  0  0  0
   35.6430   43.9330   -3.2210 C   0  0  0  0  0  0  0  0  0  0  0  0
   35.3600   45.1190   -3.7390 N   0  0  0  0  0  0  0  0  0  0  0  0
   37.5520   44.7300   -3.9480 C   0  0  0  0  0  0  0  0  0  0  0  0
   36.5500   45.5880   -4.1810 N   0  0  0  0  0  0  0  0  0  0  0  0
   36.6390   46.9140   -4.7760 C   0  0  0  0  0  0  0  0  0  0  0  0
   37.1820   41.7310   -1.8550 N   0  0  0  0  0  0  0  0  0  0  0  0
   37.6570   40.5820   -1.1760 C   0  0  1  0  0  0  0  0  0  0  0  0
   37.1590   40.2440    0.0750 C   0  0  0  0  0  0  0  0  0  0  0  0
   37.5190   39.0510    0.6720 C   0  0  0  0  0  0  0  0  0  0  0  0
   38.3900   38.1880    0.0260 C   0  0  0  0  0  0  0  0  0  0  0  0
   38.7070   36.9790    0.5700 O   0  0  0  0  0  0  0  0  0  0  0  0
   38.9190   38.5360   -1.2060 C   0  0  0  0  0  0  0  0  0  0  0  0
   38.5530   39.7280   -1.8020 C   0  0  0  0  0  0  0  0  0  0  0  0
  2  1  1  0
  3  2  1  0
  4  3  1  0
  5  4  1  0
  6  3  1  0
  7  6  1  0
  7  5  1  0
  8  7  1  0
  9  2  1  0
 10  9  1  6
 11 10  1  0
 12 11  1  0
 13 12  1  0
 14 13  1  0
 15 13  1  0
 16 10  1  0
 16 15  1  0
M  END
$$$$
Mac1-DLS-EU0906_0A
     RDKit          3D

 17 18  0  0  0  0  0  0  0  0999 V2000
   37.6370   45.8110   -6.1300 C   0  0  0  0  0  0  0  0  0  0  0  0
   37.3220   46.5220   -4.8720 C   0  0  0  0  0  0  0  0  0  0  0  0
   36.9850   45.5560   -3.8410 N   0  0  0  0  0  0  0  0  0  0  0  0
   36.1170   45.8830   -2.8620 N   0  0  0  0  0  0  0  0  0  0  0  0
   35.9700   44.7870   -2.1360 C   0  0  0  0  0  0  0  0  0  0  0  0
   36.7720   43.7580   -2.6260 C   0  0  1  0  0  0  0  0  0  0  0  0
   36.8300   42.4430   -2.1410 N   0  0  0  0  0  0  0  0  0  0  0  0
   37.8360   41.5430   -2.3230 C   0  0  0  0  0  0  0  0  0  0  0  0
   37.9400   40.4720   -1.2970 C   0  0  0  0  0  0  0  0  0  0  0  0
   37.1260   40.4970   -0.1690 C   0  0  0  0  0  0  0  0  0  0  0  0
   37.1900   39.4880    0.7740 C   0  0  0  0  0  0  0  0  0  0  0  0
   38.8160   39.4070   -1.4730 C   0  0  0  0  0  0  0  0  0  0  0  0
   38.8840   38.3880   -0.5390 C   0  0  0  0  0  0  0  0  0  0  0  0
   38.0640   38.4600    0.5550 C   0  0  0  0  0  0  0  0  0  0  0  0
   38.1230   37.4600    1.4760 F   0  0  0  0  0  0  0  0  0  0  0  0
   38.6150   41.5950   -3.2630 O   0  0  0  0  0  0  0  0  0  0  0  0
   37.3700   44.2650   -3.7500 C   0  0  0  0  0  0  0  0  0  0  0  0
  2  1  1  0
  3  2  1  0
  4  3  1  0
  5  4  1  0
  6  5  1  0
  6  7  1  6
  8  7  1  0
  9  8  1  0
 10  9  1  0
 11 10  1  0
 12  9  1  0
 13 12  1  0
 14 11  1  0
 14 13  1  0
 15 14  1  0
 16  8  1  0
 17  6  1  0
 17  3  1  0
M  END
$$$$
Mac1-DLS-EU0960_0A
     RDKit          3D

 19 20  0  0  0  0  0  0  0  0999 V2000
   35.1960   48.2600   -5.4170 C   0  0  0  0  0  0  0  0  0  0  0  0
   35.2250   46.8300   -5.0040 C   0  0  2  0  0  0  0  0  0  0  0  0
   36.3740   46.2360   -4.5590 N   0  0  0  0  0  0  0  0  0  0  0  0
   37.5840   46.9030   -4.0800 C   0  0  0  0  0  0  0  0  0  0  0  0
   36.0200   44.9470   -4.1090 N   0  0  0  0  0  0  0  0  0  0  0  0
   34.7490   44.6400   -4.5850 C   0  0  1  0  0  0  0  0  0  0  0  0
   34.2080   43.5340   -4.4290 O   0  0  0  0  0  0  0  0  0  0  0  0
   36.9940   43.9690   -3.7300 C   0  0  1  0  0  0  0  0  0  0  0  0
   36.6270   42.9470   -2.8620 C   0  0  0  0  0  0  0  0  0  0  0  0
   37.5450   41.9570   -2.5500 C   0  0  0  0  0  0  0  0  0  0  0  0
   38.7560   41.8950   -3.2080 C   0  0  0  0  0  0  0  0  0  0  0  0
   39.0720   42.8500   -4.1520 C   0  0  0  0  0  0  0  0  0  0  0  0
   38.1740   43.8630   -4.4570 C   0  0  0  0  0  0  0  0  0  0  0  0
   34.2530   45.8800   -5.1410 C   0  0  0  0  0  0  0  0  0  0  0  0
   32.9890   46.1040   -5.7160 N   0  0  0  0  0  0  0  0  0  0  0  0
   32.5950   45.6240   -7.2420 S   0  0  2  0  0  0  0  0  0  0  0  0
   32.0690   43.9470   -7.1130 C   0  0  0  0  0  0  0  0  0  0  0  0
   33.7770   45.6830   -8.0340 O   0  0  0  0  0  0  0  0  0  0  0  0
   31.4770   46.4010   -7.6580 O   0  0  0  0  0  0  0  0  0  0  0  0
  2  1  1  6
  3  2  1  0
  4  3  1  0
  5  3  1  0
  6  5  1  0
  6  7  1  1
  8  5  1  6
  9  8  1  0
 10  9  1  0
 11 10  1  0
 12 11  1  0
 13  8  1  0
 13 12  1  0
 14  6  1  0
 14  2  1  0
 15 14  1  0
 16 15  1  0
 16 17  1  1
 18 16  1  0
 19 16  1  0
M  END
$$$$
Mac1-DLS-X0091_0B
     RDKit          3D

 15 16  0  0  0  0  0  0  0  0999 V2000
   17.1260   37.8520  -21.2590 O   0  0  0  0  0  0  0  0  0  0  0  0
   16.1460   38.5140  -21.5720 C   0  0  0  0  0  0  0  0  0  0  0  0
   14.8970   38.0890  -21.3080 N   0  0  0  0  0  0  0  0  0  0  0  0
   14.6170   36.7960  -20.6920 C   0  0  1  0  0  0  0  0  0  0  0  0
   13.3310   36.1380  -21.0090 C   0  0  0  0  0  0  0  0  0  0  0  0
   14.5980   35.5940  -21.5560 C   0  0  0  0  0  0  0  0  0  0  0  0
   16.2600   39.7290  -22.2110 N   0  0  0  0  0  0  0  0  0  0  0  0
   15.1220   40.4760  -22.7310 C   0  0  0  0  0  0  0  0  0  0  0  0
   17.5770   40.3050  -22.4450 C   0  0  0  0  0  0  0  0  0  0  0  0
   18.1910   39.8530  -23.7350 C   0  0  0  0  0  0  0  0  0  0  0  0
   18.7400   40.7250  -24.5310 N   0  0  0  0  0  0  0  0  0  0  0  0
   19.2290   39.9760  -25.6260 O   0  0  0  0  0  0  0  0  0  0  0  0
   18.9430   38.6800  -25.4120 C   0  0  0  0  0  0  0  0  0  0  0  0
   19.4340   37.7260  -26.4380 C   0  0  0  0  0  0  0  0  0  0  0  0
   18.2870   38.5500  -24.2510 C   0  0  0  0  0  0  0  0  0  0  0  0
  2  1  1  0
  3  2  1  0
  4  3  1  6
  5  4  1  0
  6  5  1  0
  6  4  1  0
  7  2  1  0
  8  7  1  0
  9  7  1  0
 10  9  1  0
 11 10  1  0
 12 11  1  0
 13 12  1  0
 14 13  1  0
 15 13  1  0
 15 10  1  0
M  END
$$$$
Mac1-DLS-X0104_0A
     RDKit          3D

 17 18  0  0  0  0  0  0  0  0999 V2000
   27.8610   56.4780   -7.5090 O   0  0  0  0  0  0  0  0  0  0  0  0
   27.5830   55.8570   -8.5360 C   0  0  0  0  0  0  0  0  0  0  0  0
   27.0660   56.4990   -9.6700 N   0  0  0  0  0  0  0  0  0  0  0  0
   26.8320   57.8720   -9.8200 C   0  0  0  0  0  0  0  0  0  0  0  0
   27.4180   59.0880   -8.7030 S   0  0  0  0  0  0  0  0  0  0  0  0
   26.7490   60.3440   -9.6610 C   0  0  0  0  0  0  0  0  0  0  0  0
   26.1130   59.8790  -10.7640 C   0  0  0  0  0  0  0  0  0  0  0  0
   26.1370   58.4400  -10.8900 C   0  0  0  0  0  0  0  0  0  0  0  0
   27.7440   54.5020   -8.6830 N   0  0  0  0  0  0  0  0  0  0  0  0
   28.3890   53.6120   -7.8010 C   0  0  1  0  0  0  0  0  0  0  0  0
   28.9610   54.0900   -6.6340 C   0  0  0  0  0  0  0  0  0  0  0  0
   29.4110   53.2070   -5.6800 C   0  0  0  0  0  0  0  0  0  0  0  0
   28.3530   52.2300   -7.9830 C   0  0  0  0  0  0  0  0  0  0  0  0
   28.8130   51.3500   -7.0880 N   0  0  0  0  0  0  0  0  0  0  0  0
   29.3210   51.8480   -5.9680 C   0  0  0  0  0  0  0  0  0  0  0  0
   29.8070   51.0510   -4.9990 O   0  0  0  0  0  0  0  0  0  0  0  0
   29.7910   49.6410   -5.2130 C   0  0  0  0  0  0  0  0  0  0  0  0
  2  1  1  0
  3  2  1  0
  4  3  1  0
  5  4  1  0
  6  5  1  0
  7  6  1  0
  8  7  1  0
  8  4  1  0
  9  2  1  0
 10  9  1  1
 11 10  1  0
 12 11  1  0
 13 10  1  0
 14 13  1  0
 15 14  1  0
 15 12  1  0
 16 15  1  0
 17 16  1  0
M  END
$$$$
Mac1-DLS-X0142_0A
     RDKit          3D

 18 19  0  0  0  0  0  0  0  0999 V2000
   28.9930   54.5280   -6.0940 O   0  0  0  0  0  0  0  0  0  0  0  0
   28.5290   54.2220   -7.1940 C   0  0  0  0  0  0  0  0  0  0  0  0
   28.3740   52.9350   -7.6360 N   0  0  0  0  0  0  0  0  0  0  0  0
   28.7420   51.7470   -6.9850 C   0  0  0  0  0  0  0  0  0  0  0  0
   29.0810   51.6970   -5.6410 C   0  0  0  0  0  0  0  0  0  0  0  0
   29.4660   50.4800   -5.1130 C   0  0  0  0  0  0  0  0  0  0  0  0
   29.5290   49.3460   -5.8220 N   0  0  0  0  0  0  0  0  0  0  0  0
   29.1770   49.4170   -7.1110 C   0  0  0  0  0  0  0  0  0  0  0  0
   28.7780   50.5830   -7.7360 C   0  0  0  0  0  0  0  0  0  0  0  0
   28.0540   55.1160   -8.1170 N   0  0  0  0  0  0  0  0  0  0  0  0
   27.8290   56.5070   -7.9870 C   0  0  2  0  0  0  0  0  0  0  0  0
   27.7230   57.1810   -6.7710 C   0  0  0  0  0  0  0  0  0  0  0  0
   27.4350   58.5350   -6.7460 C   0  0  0  0  0  0  0  0  0  0  0  0
   27.6410   57.2060   -9.1770 C   0  0  0  0  0  0  0  0  0  0  0  0
   27.3440   58.5570   -9.1550 C   0  0  0  0  0  0  0  0  0  0  0  0
   27.2350   59.2230   -7.9380 C   0  0  1  0  0  0  0  0  0  0  0  0
   26.8640   60.5430   -7.8370 O   0  0  0  0  0  0  0  0  0  0  0  0
   26.5380   61.2600   -9.0330 C   0  0  0  0  0  0  0  0  0  0  0  0
  2  1  1  0
  3  2  1  0
  4  3  1  0
  5  4  1  0
  6  5  1  0
  7  6  1  0
  8  7  1  0
  9  8  1  0
  9  4  1  0
 10  2  1  0
 11 10  1  1
 12 11  1  0
 13 12  1  0
 14 11  1  0
 15 14  1  0
 16 15  1  0
 16 13  1  0
 16 17  1  1
 18 17  1  0
M  END
$$$$
Mac1-DLS-X0158_0B
     RDKit          3D

 14 14  0  0  0  0  0  0  0  0999 V2000
   25.5000   41.4900  -24.3140 O   0  0  0  0  0  0  0  0  0  0  0  0
   24.9330   41.3580  -25.6300 S   0  0  2  0  0  0  0  0  0  0  0  0
   25.0750   42.4670  -26.5360 O   0  0  0  0  0  0  0  0  0  0  0  0
   23.2170   40.9630  -25.4760 C   0  0  0  0  0  0  0  0  0  0  0  0
   23.0390   39.5610  -24.8980 C   0  0  0  0  0  0  0  0  0  0  0  0
   25.5890   39.9080  -26.3960 C   0  0  0  0  0  0  0  0  0  0  0  0
   25.1010   38.6530  -25.6850 C   0  0  0  0  0  0  0  0  0  0  0  0
   23.6470   38.4890  -25.6970 N   0  0  0  0  0  0  0  0  0  0  0  0
   23.2620   37.1710  -25.2010 C   0  0  0  0  0  0  0  0  0  0  0  0
   21.7880   36.9350  -24.9610 C   0  0  0  0  0  0  0  0  0  0  0  0
   20.9150   37.1110  -25.7720 O   0  0  0  0  0  0  0  0  0  0  0  0
   21.5920   36.4850  -23.7130 O   0  0  0  0  0  0  0  0  0  0  0  0
   20.2150   36.2110  -23.3150 C   0  0  0  0  0  0  0  0  0  0  0  0
   20.1220   34.8050  -22.9130 C   0  0  0  0  0  0  0  0  0  0  0  0
  2  1  1  1
  3  2  1  0
  4  2  1  0
  5  4  1  0
  6  2  1  0
  7  6  1  0
  8  7  1  0
  8  5  1  0
  9  8  1  0
 10  9  1  0
 11 10  1  0
 12 10  1  0
 13 12  1  0
 14 13  1  0
M  END
$$$$
Mac1-DLS-X0159_0B
     RDKit          3D

 18 20  0  0  0  0  0  0  0  0999 V2000
   38.6990   40.6320   -2.6060 N   0  0  0  0  0  0  0  0  0  0  0  0
   38.5030   39.7670   -1.5370 C   0  0  0  0  0  0  0  0  0  0  0  0
   39.0620   38.5340   -1.2050 C   0  0  0  0  0  0  0  0  0  0  0  0
   38.5890   37.8880   -0.0680 C   0  0  0  0  0  0  0  0  0  0  0  0
   37.5880   38.4620    0.7160 C   0  0  0  0  0  0  0  0  0  0  0  0
   37.0380   39.6930    0.3790 C   0  0  0  0  0  0  0  0  0  0  0  0
   37.4940   40.3450   -0.7680 C   0  0  0  0  0  0  0  0  0  0  0  0
   37.0750   41.5350   -1.3680 N   0  0  0  0  0  0  0  0  0  0  0  0
   37.8170   41.6490   -2.4610 C   0  0  2  0  0  0  0  0  0  0  0  0
   37.6400   42.6310   -3.3580 N   0  0  0  0  0  0  0  0  0  0  0  0
   38.3780   42.7450   -4.6110 C   0  0  0  0  0  0  0  0  0  0  0  0
   39.5660   43.6970   -4.4900 C   0  0  0  0  0  0  0  0  0  0  0  0
   40.3130   43.8990   -5.7870 C   0  0  0  0  0  0  0  0  0  0  0  0
   39.9760   44.9400   -6.6460 C   0  0  0  0  0  0  0  0  0  0  0  0
   40.6700   45.1370   -7.8290 C   0  0  0  0  0  0  0  0  0  0  0  0
   41.7180   44.2980   -8.1700 C   0  0  0  0  0  0  0  0  0  0  0  0
   42.0610   43.2560   -7.3290 C   0  0  0  0  0  0  0  0  0  0  0  0
   41.3630   43.0570   -6.1460 C   0  0  0  0  0  0  0  0  0  0  0  0
  2  1  1  0
  3  2  1  0
  4  3  1  0
  5  4  1  0
  6  5  1  0
  7  6  1  0
  7  2  1  0
  8  7  1  0
  9  8  1  0
  9  1  1  0
  9 10  1  6
 11 10  1  0
 12 11  1  0
 13 12  1  0
 14 13  1  0
 15 14  1  0
 16 15  1  0
 17 16  1  0
 18 17  1  0
 18 13  1  0
M  END
$$$$
Mac1-DLS-X0173_0B
     RDKit          3D

 18 19  0  0  0  0  0  0  0  0999 V2000
   26.4050   27.5860   -5.3460 N   0  0  0  0  0  0  0  0  0  0  0  0
   27.0550   27.3460   -4.4430 C   0  0  0  0  0  0  0  0  0  0  0  0
   27.9060   27.0250   -3.3280 C   0  0  0  0  0  0  0  0  0  0  0  0
   27.7910   27.7280   -2.1320 C   0  0  0  0  0  0  0  0  0  0  0  0
   28.6500   27.4510   -1.0820 C   0  0  0  0  0  0  0  0  0  0  0  0
   28.8760   26.0350   -3.4470 C   0  0  0  0  0  0  0  0  0  0  0  0
   29.7300   25.7750   -2.3910 C   0  0  0  0  0  0  0  0  0  0  0  0
   29.6310   26.4770   -1.1960 C   0  0  0  0  0  0  0  0  0  0  0  0
   30.5340   26.1480   -0.0320 C   0  0  0  0  0  0  0  0  0  0  0  0
   31.3390   27.2760    0.4210 N   0  0  0  0  0  0  0  0  0  0  0  0
   32.5620   27.5350   -0.0950 C   0  0  0  0  0  0  0  0  0  0  0  0
   33.0430   26.8200   -0.9660 O   0  0  0  0  0  0  0  0  0  0  0  0
   33.2310   28.6300    0.3880 N   0  0  0  0  0  0  0  0  0  0  0  0
   34.2980   29.1840   -0.4610 C   0  0  0  0  0  0  0  0  0  0  0  0
   35.2330   30.0170    0.3700 C   0  0  0  0  0  0  0  0  0  0  0  0
   34.5310   31.0420    1.0700 O   0  0  0  0  0  0  0  0  0  0  0  0
   33.5860   30.4630    1.9680 C   0  0  0  0  0  0  0  0  0  0  0  0
   32.5640   29.6330    1.2340 C   0  0  0  0  0  0  0  0  0  0  0  0
  2  1  1  0
  3  2  1  0
  4  3  1  0
  5  4  1  0
  6  3  1  0
  7  6  1  0
  8  7  1  0
  8  5  1  0
  9  8  1  0
 10  9  1  0
 11 10  1  0
 12 11  1  0
 13 11  1  0
 14 13  1  0
 15 14  1  0
 16 15  1  0
 17 16  1  0
 18 17  1  0
 18 13  1  0
M  END
$$$$
Mac1-DLS-X0216_0A
     RDKit          3D

 15 15  0  0  0  0  0  0  0  0999 V2000
   14.9510   27.2030  -13.8580 O   0  0  0  0  0  0  0  0  0  0  0  0
   14.4660   26.8130  -15.1550 S   0  0  2  0  0  0  0  0  0  0  0  0
   14.4990   25.4150  -15.4900 O   0  0  0  0  0  0  0  0  0  0  0  0
   15.2100   27.7180  -16.3530 C   0  0  0  0  0  0  0  0  0  0  0  0
   14.6300   29.1180  -16.1930 C   0  0  0  0  0  0  0  0  0  0  0  0
   12.8350   27.4850  -15.4200 C   0  0  0  0  0  0  0  0  0  0  0  0
   13.1620   28.9500  -15.7470 C   0  0  1  0  0  0  0  0  0  0  0  0
   12.7180   29.8920  -14.6990 N   0  0  0  0  0  0  0  0  0  0  0  0
   13.4940   29.8020  -13.4660 C   0  0  0  0  0  0  0  0  0  0  0  0
   12.1330   31.0710  -15.0870 C   0  0  0  0  0  0  0  0  0  0  0  0
   12.4810   31.6580  -16.1020 O   0  0  0  0  0  0  0  0  0  0  0  0
   11.1440   31.5470  -14.2940 N   0  0  0  0  0  0  0  0  0  0  0  0
   10.3960   32.7660  -14.6200 C   0  0  1  0  0  0  0  0  0  0  0  0
    9.2430   32.4370  -15.5440 C   0  0  0  0  0  0  0  0  0  0  0  0
    9.9160   33.4360  -13.3540 C   0  0  0  0  0  0  0  0  0  0  0  0
  2  1  1  1
  3  2  1  0
  4  2  1  0
  5  4  1  0
  6  2  1  0
  7  6  1  0
  7  5  1  0
  7  8  1  1
  9  8  1  0
 10  8  1  0
 11 10  1  0
 12 10  1  0
 13 12  1  0
 13 14  1  6
 15 13  1  0
M  END
$$$$
Mac1-DLS-X0228_0A
     RDKit          3D

 18 19  0  0  0  0  0  0  0  0999 V2000
   10.3680   49.3810  -19.9100 O   0  0  0  0  0  0  0  0  0  0  0  0
   11.1510   48.9090  -19.0860 C   0  0  0  0  0  0  0  0  0  0  0  0
   11.9240   47.8220  -19.3260 N   0  0  0  0  0  0  0  0  0  0  0  0
   11.9550   47.0040  -20.4850 N   0  0  0  0  0  0  0  0  0  0  0  0
   12.6800   45.8630  -20.5880 C   0  0  0  0  0  0  0  0  0  0  0  0
   12.5050   45.3250  -21.7630 N   0  0  0  0  0  0  0  0  0  0  0  0
   11.6210   46.1430  -22.4610 N   0  0  0  0  0  0  0  0  0  0  0  0
   11.3130   47.1350  -21.6720 C   0  0  0  0  0  0  0  0  0  0  0  0
   11.2870   49.3900  -17.8040 N   0  0  0  0  0  0  0  0  0  0  0  0
   10.3540   50.2340  -17.1490 C   0  0  2  0  0  0  0  0  0  0  0  0
   10.8440   51.3280  -16.4150 C   0  0  1  0  0  0  0  0  0  0  0  0
   12.1770   51.5880  -16.5910 O   0  0  0  0  0  0  0  0  0  0  0  0
   12.7100   52.7770  -16.0020 C   0  0  0  0  0  0  0  0  0  0  0  0
    8.9880   49.9680  -17.1360 C   0  0  0  0  0  0  0  0  0  0  0  0
    8.1120   50.7440  -16.3860 C   0  0  0  0  0  0  0  0  0  0  0  0
    6.6280   50.4720  -16.4130 C   0  0  0  0  0  0  0  0  0  0  0  0
    8.6310   51.7910  -15.6320 C   0  0  0  0  0  0  0  0  0  0  0  0
    9.9820   52.0930  -15.6430 C   0  0  0  0  0  0  0  0  0  0  0  0
  2  1  1  0
  3  2  1  0
  4  3  1  0
  5  4  1  0
  6  5  1  0
  7  6  1  0
  8  7  1  0
  8  4  1  0
  9  2  1  0
 10  9  1  1
 11 10  1  0
 11 12  1  6
 13 12  1  0
 14 10  1  0
 15 14  1  0
 16 15  1  0
 17 15  1  0
 18 11  1  0
 18 17  1  0
M  END
$$$$
Mac1-DLS-X0228_0B
     RDKit          3D

 18 19  0  0  0  0  0  0  0  0999 V2000
   25.9450   48.9750    9.0160 O   0  0  0  0  0  0  0  0  0  0  0  0
   25.1390   48.3990    9.7430 C   0  0  0  0  0  0  0  0  0  0  0  0
   24.9130   48.7470   11.0220 N   0  0  0  0  0  0  0  0  0  0  0  0
   25.5620   49.7970   11.6680 N   0  0  0  0  0  0  0  0  0  0  0  0
   24.9920   50.9820   12.0030 C   0  0  0  0  0  0  0  0  0  0  0  0
   25.8510   51.7260   12.6430 N   0  0  0  0  0  0  0  0  0  0  0  0
   27.0370   51.0020   12.7280 N   0  0  0  0  0  0  0  0  0  0  0  0
   26.8330   49.8580   12.1370 C   0  0  0  0  0  0  0  0  0  0  0  0
   24.3620   47.3400    9.3480 N   0  0  0  0  0  0  0  0  0  0  0  0
   24.4190   46.6180    8.1310 C   0  0  0  0  0  0  0  0  0  0  0  0
   24.2290   45.2370    8.2250 C   0  0  0  0  0  0  0  0  0  0  0  0
   24.0720   44.7730    9.5040 O   0  0  0  0  0  0  0  0  0  0  0  0
   23.9340   43.3700    9.6960 C   0  0  0  0  0  0  0  0  0  0  0  0
   24.6280   47.1920    6.8810 C   0  0  0  0  0  0  0  0  0  0  0  0
   24.6410   46.4170    5.7290 C   0  0  0  0  0  0  0  0  0  0  0  0
   24.8720   47.0510    4.3800 C   0  0  0  0  0  0  0  0  0  0  0  0
   24.4350   45.0450    5.8490 C   0  0  0  0  0  0  0  0  0  0  0  0
   24.2330   44.4480    7.0820 C   0  0  0  0  0  0  0  0  0  0  0  0
  2  1  1  0
  3  2  1  0
  4  3  1  0
  5  4  1  0
  6  5  1  0
  7  6  1  0
  8  7  1  0
  8  4  1  0
  9  2  1  0
 10  9  1  0
 11 10  1  0
 12 11  1  0
 13 12  1  0
 14 10  1  0
 15 14  1  0
 16 15  1  0
 17 15  1  0
 18 17  1  0
 18 11  1  0
M  END
$$$$
Mac1-DLS-X0253_0A
     RDKit          3D

 14 14  0  0  0  0  0  0  0  0999 V2000
   31.1220   45.6170   -8.2690 O   0  0  0  0  0  0  0  0  0  0  0  0
   32.1210   45.6570   -7.5570 C   0  0  0  0  0  0  0  0  0  0  0  0
   33.1440   46.4360   -7.8330 O   0  0  0  0  0  0  0  0  0  0  0  0
   32.2450   44.8650   -6.2720 C   0  0  0  0  0  0  0  0  0  0  0  0
   33.4690   45.1030   -5.5330 N   0  0  0  0  0  0  0  0  0  0  0  0
   34.0730   44.1280   -4.8460 C   0  0  0  0  0  0  0  0  0  0  0  0
   33.5820   43.0170   -4.6810 O   0  0  0  0  0  0  0  0  0  0  0  0
   35.3790   44.4620   -4.2190 C   0  0  2  0  0  0  0  0  0  0  0  0
   35.8690   43.6520   -3.2020 C   0  0  0  0  0  0  0  0  0  0  0  0
   37.0170   44.0180   -2.5200 C   0  0  0  0  0  0  0  0  0  0  0  0
   37.6860   45.1810   -2.8730 C   0  0  0  0  0  0  0  0  0  0  0  0
   36.0710   45.6130   -4.5740 C   0  0  0  0  0  0  0  0  0  0  0  0
   37.2220   45.9940   -3.9030 C   0  0  1  0  0  0  0  0  0  0  0  0
   37.9150   47.2870   -4.2410 C   0  0  0  0  0  0  0  0  0  0  0  0
  2  1  1  0
  3  2  1  0
  4  2  1  0
  5  4  1  0
  6  5  1  0
  7  6  1  0
  8  6  1  1
  9  8  1  0
 10  9  1  0
 11 10  1  0
 12  8  1  0
 13 12  1  0
 13 11  1  0
 13 14  1  1
M  END
$$$$
Mac1-DLS-X0259_0A
     RDKit          3D

 15 16  0  0  0  0  0  0  0  0999 V2000
   11.8120   27.1600  -16.3760 Cl  0  0  0  0  0  0  0  0  0  0  0  0
   12.8160   28.0180  -15.2490 C   0  0  0  0  0  0  0  0  0  0  0  0
   13.7060   27.3210  -14.4520 C   0  0  0  0  0  0  0  0  0  0  0  0
   14.4560   27.9140  -13.5240 N   0  0  0  0  0  0  0  0  0  0  0  0
   14.3150   29.2330  -13.4420 C   0  0  0  0  0  0  0  0  0  0  0  0
   13.5200   30.0250  -14.1710 N   0  0  0  0  0  0  0  0  0  0  0  0
   12.7560   29.4040  -15.0890 C   0  0  0  0  0  0  0  0  0  0  0  0
   11.9600   30.2170  -15.8650 N   0  0  0  0  0  0  0  0  0  0  0  0
   11.2200   29.7330  -17.0260 C   0  0  0  0  0  0  0  0  0  0  0  0
   11.8510   31.6560  -15.6330 C   0  0  0  0  0  0  0  0  0  0  0  0
   10.7590   32.0540  -14.6510 C   0  0  1  0  0  0  0  0  0  0  0  0
   11.0900   33.2970  -13.8470 C   0  0  0  0  0  0  0  0  0  0  0  0
    9.8340   33.7360  -13.3550 O   0  0  0  0  0  0  0  0  0  0  0  0
    8.9240   33.5990  -14.4430 C   0  0  0  0  0  0  0  0  0  0  0  0
    9.4490   32.4760  -15.3250 C   0  0  0  0  0  0  0  0  0  0  0  0
  2  1  1  0
  3  2  1  0
  4  3  1  0
  5  4  1  0
  6  5  1  0
  7  6  1  0
  7  2  1  0
  8  7  1  0
  9  8  1  0
 10  8  1  0
 11 10  1  6
 12 11  1  0
 13 12  1  0
 14 13  1  0
 15 11  1  0
 15 14  1  0
M  END
$$$$
Mac1-DLS-X0299_0A
     RDKit          3D

 16 17  0  0  0  0  0  0  0  0999 V2000
   26.4790   57.1020   -7.5660 O   0  0  0  0  0  0  0  0  0  0  0  0
   27.1370   56.7630   -8.5460 C   0  0  0  0  0  0  0  0  0  0  0  0
   26.5390   56.7840   -9.9360 C   0  0  0  0  0  0  0  0  0  0  0  0
   26.9850   57.9630  -10.7780 C   0  0  0  0  0  0  0  0  0  0  0  0
   26.1930   59.2250  -10.5050 C   0  0  0  0  0  0  0  0  0  0  0  0
   28.3980   56.3440   -8.4510 N   0  0  0  0  0  0  0  0  0  0  0  0
   28.9810   55.9930   -7.1710 C   0  0  0  0  0  0  0  0  0  0  0  0
   28.9530   54.4770   -6.9710 C   0  0  0  0  0  0  0  0  0  0  0  0
   28.6440   53.6080   -7.9640 N   0  0  0  0  0  0  0  0  0  0  0  0
   28.7030   52.3410   -7.4260 C   0  0  0  0  0  0  0  0  0  0  0  0
   29.0610   52.5150   -6.0910 C   0  0  0  0  0  0  0  0  0  0  0  0
   29.2120   53.8770   -5.8240 N   0  0  0  0  0  0  0  0  0  0  0  0
   28.4850   51.0860   -7.9700 C   0  0  0  0  0  0  0  0  0  0  0  0
   28.6450   49.9880   -7.1410 C   0  0  0  0  0  0  0  0  0  0  0  0
   29.0030   50.1450   -5.8050 C   0  0  0  0  0  0  0  0  0  0  0  0
   29.2130   51.4050   -5.2670 C   0  0  0  0  0  0  0  0  0  0  0  0
  2  1  1  0
  3  2  1  0
  4  3  1  0
  5  4  1  0
  6  2  1  0
  7  6  1  0
  8  7  1  0
  9  8  1  0
 10  9  1  0
 11 10  1  0
 12 11  1  0
 12  8  1  0
 13 10  1  0
 14 13  1  0
 15 14  1  0
 16 15  1  0
 16 11  1  0
M  END
$$$$
Mac1-DLS-X0301_0B
     RDKit          3D

 12 12  0  0  0  0  0  0  0  0999 V2000
   13.7320   29.0710  -13.6110 O   0  0  0  0  0  0  0  0  0  0  0  0
   13.2690   29.7700  -14.5100 C   0  0  0  0  0  0  0  0  0  0  0  0
   13.7490   29.6260  -15.9650 C   0  0  1  0  0  0  0  0  0  0  0  0
   15.2640   29.4280  -15.9920 C   0  0  0  0  0  0  0  0  0  0  0  0
   13.0810   28.4150  -16.5750 C   0  0  0  0  0  0  0  0  0  0  0  0
   12.3080   30.7410  -14.3030 N   0  0  0  0  0  0  0  0  0  0  0  0
   11.6250   31.0730  -13.1370 C   0  0  1  0  0  0  0  0  0  0  0  0
   10.7150   32.0360  -13.0850 N   0  0  0  0  0  0  0  0  0  0  0  0
   10.2290   31.8520  -11.8550 N   0  0  0  0  0  0  0  0  0  0  0  0
    9.1560   32.6650  -11.2980 C   0  0  0  0  0  0  0  0  0  0  0  0
   10.7990   30.8740  -11.1820 N   0  0  0  0  0  0  0  0  0  0  0  0
   11.7120   30.3590  -11.9820 N   0  0  0  0  0  0  0  0  0  0  0  0
  2  1  1  0
  3  2  1  0
  3  4  1  1
  5  3  1  0
  6  2  1  0
  7  6  1  6
  8  7  1  0
  9  8  1  0
 10  9  1  0
 11  9  1  0
 12 11  1  0
 12  7  1  0
M  END
$$$$
Mac1-DLS-X0334_0A
     RDKit          3D

 14 14  0  0  0  0  0  0  0  0999 V2000
   12.6250   54.0940  -15.4790 C   0  0  0  0  0  0  0  0  0  0  0  0
   11.8440   53.8890  -16.6890 N   0  0  0  0  0  0  0  0  0  0  0  0
   11.2650   55.0730  -17.3060 C   0  0  0  0  0  0  0  0  0  0  0  0
   11.6870   52.6270  -17.2420 C   0  0  0  0  0  0  0  0  0  0  0  0
   12.2660   51.5030  -16.6500 C   0  0  0  0  0  0  0  0  0  0  0  0
   12.1050   50.2470  -17.2060 C   0  0  0  0  0  0  0  0  0  0  0  0
   10.9240   52.4330  -18.4030 C   0  0  0  0  0  0  0  0  0  0  0  0
   10.7660   51.1670  -18.9410 C   0  0  0  0  0  0  0  0  0  0  0  0
   11.3700   50.0610  -18.3660 C   0  0  1  0  0  0  0  0  0  0  0  0
   11.3160   48.7090  -19.0360 C   0  0  0  0  0  0  0  0  0  0  0  0
   12.3280   48.6140  -20.0970 N   0  0  0  0  0  0  0  0  0  0  0  0
   12.4740   47.2880  -20.7300 C   0  0  1  0  0  0  0  0  0  0  0  0
   11.2380   46.9420  -21.5250 C   0  0  0  0  0  0  0  0  0  0  0  0
   13.7130   47.2630  -21.5980 C   0  0  0  0  0  0  0  0  0  0  0  0
  2  1  1  0
  3  2  1  0
  4  2  1  0
  5  4  1  0
  6  5  1  0
  7  4  1  0
  8  7  1  0
  9  8  1  0
  9  6  1  0
  9 10  1  6
 11 10  1  0
 12 11  1  0
 12 13  1  6
 14 12  1  0
M  END
$$$$
Mac1-DLS-X0371_0A
     RDKit          3D

 18 20  0  0  0  0  0  0  0  0999 V2000
   26.7290   57.2970   -7.1450 O   0  0  0  0  0  0  0  0  0  0  0  0
   27.1730   56.8940   -8.2240 C   0  0  0  0  0  0  0  0  0  0  0  0
   26.5080   57.2480   -9.4990 C   0  0  0  0  0  0  0  0  0  0  0  0
   26.9960   56.7060  -10.6530 O   0  0  0  0  0  0  0  0  0  0  0  0
   26.1770   57.1540  -11.6540 C   0  0  0  0  0  0  0  0  0  0  0  0
   25.2230   57.9380  -11.1690 C   0  0  0  0  0  0  0  0  0  0  0  0
   25.4250   58.0110   -9.7740 C   0  0  0  0  0  0  0  0  0  0  0  0
   28.2600   56.1250   -8.3190 N   0  0  0  0  0  0  0  0  0  0  0  0
   29.0150   55.7480   -7.1420 C   0  0  0  0  0  0  0  0  0  0  0  0
   28.9520   54.2600   -6.8970 C   0  0  0  0  0  0  0  0  0  0  0  0
   28.5980   53.3980   -7.8800 N   0  0  0  0  0  0  0  0  0  0  0  0
   28.6640   52.1280   -7.3490 C   0  0  0  0  0  0  0  0  0  0  0  0
   29.0700   52.2970   -6.0250 C   0  0  0  0  0  0  0  0  0  0  0  0
   29.2380   53.6530   -5.7610 N   0  0  0  0  0  0  0  0  0  0  0  0
   28.4320   50.8770   -7.8890 C   0  0  0  0  0  0  0  0  0  0  0  0
   28.6290   49.7730   -7.0720 C   0  0  0  0  0  0  0  0  0  0  0  0
   29.0390   49.9260   -5.7510 C   0  0  0  0  0  0  0  0  0  0  0  0
   29.2610   51.1850   -5.2130 C   0  0  0  0  0  0  0  0  0  0  0  0
  2  1  1  0
  3  2  1  0
  4  3  1  0
  5  4  1  0
  6  5  1  0
  7  6  1  0
  7  3  1  0
  8  2  1  0
  9  8  1  0
 10  9  1  0
 11 10  1  0
 12 11  1  0
 13 12  1  0
 14 13  1  0
 14 10  1  0
 15 12  1  0
 16 15  1  0
 17 16  1  0
 18 17  1  0
 18 13  1  0
M  END
$$$$
Mac1-DLS-X0380_0B
     RDKit          3D

 13 13  0  0  0  0  0  0  0  0999 V2000
   19.3800   44.5170   12.5160 O   0  0  0  0  0  0  0  0  0  0  0  0
   20.4400   44.1230   12.0450 C   0  0  0  0  0  0  0  0  0  0  0  0
   20.8740   42.6560   12.2150 C   0  0  0  0  0  0  0  0  0  0  0  0
   20.5860   42.2690   13.6100 N   0  0  0  0  0  0  0  0  0  0  0  0
   21.3150   44.9100   11.3880 N   0  0  0  0  0  0  0  0  0  0  0  0
   21.2460   46.3130   11.2290 C   0  0  0  0  0  0  0  0  0  0  0  0
   20.9470   46.8510    9.9670 C   0  0  0  0  0  0  0  0  0  0  0  0
   20.5790   45.9610    8.8050 C   0  0  0  0  0  0  0  0  0  0  0  0
   21.5240   47.1410   12.3180 C   0  0  0  0  0  0  0  0  0  0  0  0
   21.5020   48.5170   12.1630 C   0  0  0  0  0  0  0  0  0  0  0  0
   21.2230   49.0710   10.9300 C   0  0  0  0  0  0  0  0  0  0  0  0
   20.9800   48.2370    9.8590 C   0  0  1  0  0  0  0  0  0  0  0  0
   20.8530   48.9690    8.3010 Cl  0  0  0  0  0  0  0  0  0  0  0  0
  2  1  1  0
  3  2  1  0
  4  3  1  0
  5  2  1  0
  6  5  1  0
  7  6  1  0
  8  7  1  0
  9  6  1  0
 10  9  1  0
 11 10  1  0
 12  7  1  0
 12 11  1  0
 12 13  1  6
M  END
$$$$
Mac1-DLS-X0417_0B
     RDKit          3D

 15 16  0  0  0  0  0  0  0  0999 V2000
   20.2720   45.6700    8.3740 F   0  0  0  0  0  0  0  0  0  0  0  0
   20.5900   46.6110    9.2770 C   0  0  0  0  0  0  0  0  0  0  0  0
   20.5620   47.9280    8.8910 C   0  0  0  0  0  0  0  0  0  0  0  0
   20.9540   48.8910    9.8060 C   0  0  0  0  0  0  0  0  0  0  0  0
   21.3680   48.5230   11.0780 C   0  0  0  0  0  0  0  0  0  0  0  0
   21.3890   47.1870   11.4590 C   0  0  0  0  0  0  0  0  0  0  0  0
   20.9910   46.2020   10.5600 C   0  0  2  0  0  0  0  0  0  0  0  0
   21.0810   44.8160   10.9200 N   0  0  0  0  0  0  0  0  0  0  0  0
   22.2150   43.9830   10.4880 C   0  0  0  0  0  0  0  0  0  0  0  0
   22.2590   42.8980   11.5540 C   0  0  0  0  0  0  0  0  0  0  0  0
   20.2040   44.1360   11.7240 C   0  0  0  0  0  0  0  0  0  0  0  0
   19.1450   44.5620   12.1390 O   0  0  0  0  0  0  0  0  0  0  0  0
   20.8010   42.7660   12.0230 C   0  0  2  0  0  0  0  0  0  0  0  0
   20.6340   42.4080   13.4390 N   0  0  0  0  0  0  0  0  0  0  0  0
   20.8230   41.0000   13.7870 C   0  0  0  0  0  0  0  0  0  0  0  0
  2  1  1  0
  3  2  1  0
  4  3  1  0
  5  4  1  0
  6  5  1  0
  7  2  1  0
  7  6  1  0
  7  8  1  6
  9  8  1  0
 10  9  1  0
 11  8  1  0
 12 11  1  0
 13 11  1  0
 13 10  1  0
 13 14  1  1
 15 14  1  0
M  END
$$$$
Mac1-DLS-X0421_0A
     RDKit          3D

 11 12  0  0  0  0  0  0  0  0999 V2000
   29.5040   48.1920   -6.4590 O   0  0  0  0  0  0  0  0  0  0  0  0
   29.4650   49.3670   -6.0680 C   0  0  2  0  0  0  0  0  0  0  0  0
   29.7900   49.7260   -4.8330 N   0  0  0  0  0  0  0  0  0  0  0  0
   28.9390   50.4360   -6.9560 C   0  0  0  0  0  0  0  0  0  0  0  0
   29.0000   51.7890   -6.6320 N   0  0  0  0  0  0  0  0  0  0  0  0
   28.4570   52.3890   -7.6840 C   0  0  0  0  0  0  0  0  0  0  0  0
   28.0560   51.5270   -8.6430 N   0  0  0  0  0  0  0  0  0  0  0  0
   28.3650   50.2930   -8.1850 C   0  0  0  0  0  0  0  0  0  0  0  0
   28.3000   53.8440   -7.9170 C   0  0  2  0  0  0  0  0  0  0  0  0
   29.5140   54.7250   -7.9860 C   0  0  0  0  0  0  0  0  0  0  0  0
   28.6150   54.8230   -6.8210 C   0  0  0  0  0  0  0  0  0  0  0  0
  2  1  1  0
  2  3  1  1
  4  2  1  0
  5  4  1  0
  6  5  1  0
  7  6  1  0
  8  7  1  0
  8  4  1  0
  9  6  1  1
 10  9  1  0
 11  9  1  0
 11 10  1  0
M  END
$$$$
Mac1-DLS-X0423_0B
     RDKit          3D

 14 15  0  0  0  0  0  0  0  0999 V2000
   10.3030   39.6120  -21.4750 C   0  0  0  0  0  0  0  0  0  0  0  0
   11.0150   38.3350  -21.4620 N   0  0  0  0  0  0  0  0  0  0  0  0
   12.2560   38.3370  -22.2580 C   0  0  1  0  0  0  0  0  0  0  0  0
   13.3370   39.1170  -21.5100 C   0  0  0  0  0  0  0  0  0  0  0  0
   14.5880   38.3560  -21.4630 N   0  0  0  0  0  0  0  0  0  0  0  0
   14.4670   37.0870  -20.7310 C   0  0  0  0  0  0  0  0  0  0  0  0
   13.3070   36.2610  -21.2660 C   0  0  0  0  0  0  0  0  0  0  0  0
   12.7110   36.9000  -22.5210 C   0  0  0  0  0  0  0  0  0  0  0  0
   15.7980   38.9380  -21.7770 C   0  0  0  0  0  0  0  0  0  0  0  0
   16.8850   38.1810  -21.6050 N   0  0  0  0  0  0  0  0  0  0  0  0
   18.1040   38.6850  -21.8940 N   0  0  0  0  0  0  0  0  0  0  0  0
   18.2130   39.9270  -22.3490 C   0  0  0  0  0  0  0  0  0  0  0  0
   17.1290   40.7480  -22.5470 C   0  0  0  0  0  0  0  0  0  0  0  0
   15.8730   40.2510  -22.2560 C   0  0  0  0  0  0  0  0  0  0  0  0
  2  1  1  0
  3  2  1  1
  4  3  1  0
  5  4  1  0
  6  5  1  0
  7  6  1  0
  8  7  1  0
  8  3  1  0
  9  5  1  0
 10  9  1  0
 11 10  1  0
 12 11  1  0
 13 12  1  0
 14  9  1  0
 14 13  1  0
M  END
$$$$
Mac1-DLS-X0436_0B
     RDKit          3D

 13 13  0  0  0  0  0  0  0  0999 V2000
   21.6740   49.1840   15.1620 O   0  0  0  0  0  0  0  0  0  0  0  0
   22.0990   49.8500   14.2170 C   0  0  0  0  0  0  0  0  0  0  0  0
   23.3860   50.0310   13.9720 N   0  0  0  0  0  0  0  0  0  0  0  0
   21.1090   50.4930   13.2570 C   0  0  1  0  0  0  0  0  0  0  0  0
   20.8230   51.9180   13.6720 C   0  0  0  0  0  0  0  0  0  0  0  0
   21.7350   50.5600   11.9770 O   0  0  0  0  0  0  0  0  0  0  0  0
   21.5660   49.5040   11.1070 C   0  0  2  0  0  0  0  0  0  0  0  0
   20.8320   49.7230    9.9510 C   0  0  0  0  0  0  0  0  0  0  0  0
   20.5240   48.6610    9.1230 C   0  0  0  0  0  0  0  0  0  0  0  0
   20.9470   47.3940    9.4650 C   0  0  2  0  0  0  0  0  0  0  0  0
   20.3390   46.0290    8.5770 Cl  0  0  0  0  0  0  0  0  0  0  0  0
   21.7390   47.1770   10.5710 C   0  0  0  0  0  0  0  0  0  0  0  0
   22.0480   48.2390   11.4010 C   0  0  0  0  0  0  0  0  0  0  0  0
  2  1  1  0
  3  2  1  0
  4  2  1  0
  4  5  1  1
  6  4  1  0
  7  6  1  1
  8  7  1  0
  9  8  1  0
 10  9  1  0
 10 11  1  1
 12 10  1  0
 13 12  1  0
 13  7  1  0
M  END
$$$$
Mac1-DLS-X0465_0A
     RDKit          3D

 13 13  0  0  0  0  0  0  0  0999 V2000
   31.1990   45.7480   -8.0910 O   0  0  0  0  0  0  0  0  0  0  0  0
   32.2950   45.7200   -7.5370 C   0  0  0  0  0  0  0  0  0  0  0  0
   33.4180   46.0610   -8.1170 O   0  0  0  0  0  0  0  0  0  0  0  0
   32.4320   45.2530   -6.0940 C   0  0  1  0  0  0  0  0  0  0  0  0
   31.8140   43.8790   -5.9690 C   0  0  0  0  0  0  0  0  0  0  0  0
   33.7970   45.1410   -5.6730 O   0  0  0  0  0  0  0  0  0  0  0  0
   34.5120   46.2990   -5.4050 C   0  0  0  0  0  0  0  0  0  0  0  0
   35.8570   46.1330   -5.1120 C   0  0  0  0  0  0  0  0  0  0  0  0
   36.3610   44.8870   -5.0760 F   0  0  0  0  0  0  0  0  0  0  0  0
   36.6840   47.1970   -4.8340 C   0  0  0  0  0  0  0  0  0  0  0  0
   36.1490   48.4750   -4.8600 C   0  0  0  0  0  0  0  0  0  0  0  0
   34.8190   48.6710   -5.1600 C   0  0  0  0  0  0  0  0  0  0  0  0
   33.9910   47.5890   -5.4260 C   0  0  0  0  0  0  0  0  0  0  0  0
  2  1  1  0
  3  2  1  0
  4  2  1  0
  4  5  1  6
  6  4  1  0
  7  6  1  0
  8  7  1  0
  9  8  1  0
 10  8  1  0
 11 10  1  0
 12 11  1  0
 13 12  1  0
 13  7  1  0
M  END
$$$$
Mac1-DLS-X0469_0B
     RDKit          3D

 14 14  0  0  0  0  0  0  0  0999 V2000
    3.1740   52.5600   -1.4120 N   0  0  0  0  0  0  0  0  0  0  0  0
    4.5960   52.2860   -1.6320 C   0  0  0  0  0  0  0  0  0  0  0  0
    5.4160   53.5440   -1.8350 C   0  0  0  0  0  0  0  0  0  0  0  0
    5.6520   54.4090   -0.7740 C   0  0  0  0  0  0  0  0  0  0  0  0
    5.9510   53.8410   -3.0840 C   0  0  0  0  0  0  0  0  0  0  0  0
    6.7210   54.9760   -3.2750 C   0  0  0  0  0  0  0  0  0  0  0  0
    7.3700   55.2930   -4.4380 O   0  0  0  0  0  0  0  0  0  0  0  0
    7.3430   54.3370   -5.5000 C   0  0  0  0  0  0  0  0  0  0  0  0
    6.9200   55.8650   -2.2150 C   0  0  1  0  0  0  0  0  0  0  0  0
    7.5490   57.0740   -2.4300 O   0  0  0  0  0  0  0  0  0  0  0  0
    8.9730   57.0620   -2.3940 C   0  0  0  0  0  0  0  0  0  0  0  0
    6.3780   55.5760   -0.9620 C   0  0  1  0  0  0  0  0  0  0  0  0
    6.5270   56.5590   -0.0240 O   0  0  0  0  0  0  0  0  0  0  0  0
    5.6910   56.5050    1.1280 C   0  0  0  0  0  0  0  0  0  0  0  0
  2  1  1  0
  3  2  1  0
  4  3  1  0
  5  3  1  0
  6  5  1  0
  7  6  1  0
  8  7  1  0
  9  6  1  0
  9 10  1  6
 11 10  1  0
 12  4  1  0
 12  9  1  0
 12 13  1  6
 14 13  1  0
M  END
$$$$
Mac1-DLS-X0471_0A
     RDKit          3D

 16 17  0  0  0  0  0  0  0  0999 V2000
   26.6840   57.0910   -7.8920 O   0  0  0  0  0  0  0  0  0  0  0  0
   27.6420   57.0230   -8.6630 C   0  0  0  0  0  0  0  0  0  0  0  0
   27.5300   57.4540  -10.1240 C   0  0  1  0  0  0  0  0  0  0  0  0
   26.1160   57.2590  -10.6000 C   0  0  0  0  0  0  0  0  0  0  0  0
   27.9950   58.8950  -10.2940 C   0  0  0  0  0  0  0  0  0  0  0  0
   28.8380   56.5810   -8.2780 N   0  0  0  0  0  0  0  0  0  0  0  0
   29.0840   56.1260   -6.9260 C   0  0  0  0  0  0  0  0  0  0  0  0
   28.9530   54.6270   -6.8480 C   0  0  0  0  0  0  0  0  0  0  0  0
   28.4530   53.8840   -7.8640 N   0  0  0  0  0  0  0  0  0  0  0  0
   28.4330   52.5740   -7.4360 C   0  0  0  0  0  0  0  0  0  0  0  0
   28.9670   52.5930   -6.1480 C   0  0  0  0  0  0  0  0  0  0  0  0
   29.2800   53.9050   -5.7940 N   0  0  0  0  0  0  0  0  0  0  0  0
   28.0010   51.4020   -8.0370 C   0  0  0  0  0  0  0  0  0  0  0  0
   28.1420   50.2220   -7.3220 C   0  0  0  0  0  0  0  0  0  0  0  0
   28.6930   50.2220   -6.0410 C   0  0  0  0  0  0  0  0  0  0  0  0
   29.1050   51.4020   -5.4400 C   0  0  0  0  0  0  0  0  0  0  0  0
  2  1  1  0
  3  2  1  0
  3  4  1  1
  5  3  1  0
  6  2  1  0
  7  6  1  0
  8  7  1  0
  9  8  1  0
 10  9  1  0
 11 10  1  0
 12 11  1  0
 12  8  1  0
 13 10  1  0
 14 13  1  0
 15 14  1  0
 16 15  1  0
 16 11  1  0
M  END
$$$$
Mac1-DLS-X0496_0A
     RDKit          3D

 13 13  0  0  0  0  0  0  0  0999 V2000
    8.0740   41.5150   -2.8110 O   0  0  0  0  0  0  0  0  0  0  0  0
    7.4190   42.1820   -2.0030 C   0  0  0  0  0  0  0  0  0  0  0  0
    7.3470   43.5190   -2.0300 N   0  0  0  0  0  0  0  0  0  0  0  0
    6.6200   41.4980   -0.9240 C   0  0  0  0  0  0  0  0  0  0  0  0
    7.0800   40.3950   -0.2020 C   0  0  0  0  0  0  0  0  0  0  0  0
    8.6400   39.6680   -0.4560 Cl  0  0  0  0  0  0  0  0  0  0  0  0
    6.2220   39.8710    0.7530 C   0  0  0  0  0  0  0  0  0  0  0  0
    5.0000   40.3760    0.9840 N   0  0  0  0  0  0  0  0  0  0  0  0
    5.4000   42.0180   -0.7090 N   0  0  0  0  0  0  0  0  0  0  0  0
    4.6450   41.4340    0.2310 C   0  0  2  0  0  0  0  0  0  0  0  0
    3.3010   42.0760    0.5040 C   0  0  1  0  0  0  0  0  0  0  0  0
    2.2340   41.0560    0.8990 C   0  0  0  0  0  0  0  0  0  0  0  0
    3.4480   43.1480    1.5740 C   0  0  0  0  0  0  0  0  0  0  0  0
  2  1  1  0
  3  2  1  0
  4  2  1  0
  5  4  1  0
  6  5  1  0
  7  5  1  0
  8  7  1  0
  9  4  1  0
 10  9  1  1
 10  8  1  0
 11 10  1  0
 11 12  1  1
 13 11  1  0
M  END
$$$$
Mac1-DLS-X0516_0A
     RDKit          3D

 15 16  0  0  0  0  0  0  0  0999 V2000
   13.7840   47.3850  -21.7190 O   0  0  0  0  0  0  0  0  0  0  0  0
   12.4070   47.0240  -21.5650 C   0  0  1  0  0  0  0  0  0  0  0  0
   12.1990   45.6050  -22.0430 C   0  0  0  0  0  0  0  0  0  0  0  0
   12.0060   47.1360  -20.0830 C   0  0  0  0  0  0  0  0  0  0  0  0
   11.9180   48.5290  -19.6320 N   0  0  0  0  0  0  0  0  0  0  0  0
   11.3840   48.6920  -18.2690 C   0  0  0  0  0  0  0  0  0  0  0  0
   11.4020   50.1260  -17.7960 C   0  0  1  0  0  0  0  0  0  0  0  0
   12.4120   50.5770  -16.9490 C   0  0  0  0  0  0  0  0  0  0  0  0
   12.4640   51.9180  -16.6260 C   0  0  0  0  0  0  0  0  0  0  0  0
   13.4060   52.5860  -15.8770 O   0  0  0  0  0  0  0  0  0  0  0  0
   12.9100   53.9220  -15.7510 C   0  0  0  0  0  0  0  0  0  0  0  0
   11.8250   54.0770  -16.6690 O   0  0  0  0  0  0  0  0  0  0  0  0
   11.5330   52.8010  -17.1060 C   0  0  0  0  0  0  0  0  0  0  0  0
   10.5010   52.3800  -17.9260 C   0  0  0  0  0  0  0  0  0  0  0  0
   10.4490   51.0340  -18.2630 C   0  0  0  0  0  0  0  0  0  0  0  0
  2  1  1  0
  2  3  1  1
  4  2  1  0
  5  4  1  0
  6  5  1  0
  7  6  1  6
  8  7  1  0
  9  8  1  0
 10  9  1  0
 11 10  1  0
 12 11  1  0
 13 12  1  0
 13  9  1  0
 14 13  1  0
 15 14  1  0
 15  7  1  0
M  END
$$$$
Mac1-DLS-X0524_0A
     RDKit          3D

 17 18  0  0  0  0  0  0  0  0999 V2000
   35.3750   45.5090   -4.1930 O   0  0  0  0  0  0  0  0  0  0  0  0
   36.4500   46.0690   -4.3660 C   0  0  0  0  0  0  0  0  0  0  0  0
   36.5410   47.5290   -4.6670 C   0  0  0  0  0  0  0  0  0  0  0  0
   37.6300   45.4220   -4.3120 N   0  0  0  0  0  0  0  0  0  0  0  0
   37.8780   44.1030   -3.8780 C   0  0  0  0  0  0  0  0  0  0  0  0
   38.3290   43.1310   -4.7650 C   0  0  0  0  0  0  0  0  0  0  0  0
   38.5600   41.8390   -4.3250 C   0  0  0  0  0  0  0  0  0  0  0  0
   38.3510   41.5030   -2.9930 C   0  0  0  0  0  0  0  0  0  0  0  0
   37.9070   42.4790   -2.1040 C   0  0  0  0  0  0  0  0  0  0  0  0
   37.6730   43.7700   -2.5450 C   0  0  0  0  0  0  0  0  0  0  0  0
   38.6360   40.1870   -2.5920 N   0  0  0  0  0  0  0  0  0  0  0  0
   38.3460   39.5190   -1.3910 C   0  0  0  0  0  0  0  0  0  0  0  0
   39.0220   38.3260   -1.1460 C   0  0  0  0  0  0  0  0  0  0  0  0
   38.7480   37.6000    0.0000 C   0  0  0  0  0  0  0  0  0  0  0  0
   37.8130   38.0590    0.9130 C   0  0  0  0  0  0  0  0  0  0  0  0
   37.1480   39.2460    0.6770 C   0  0  0  0  0  0  0  0  0  0  0  0
   37.4050   39.9770   -0.4710 C   0  0  0  0  0  0  0  0  0  0  0  0
  2  1  1  0
  3  2  1  0
  4  2  1  0
  5  4  1  0
  6  5  1  0
  7  6  1  0
  8  7  1  0
  9  8  1  0
 10  9  1  0
 10  5  1  0
 11  8  1  0
 12 11  1  0
 13 12  1  0
 14 13  1  0
 15 14  1  0
 16 15  1  0
 17 16  1  0
 17 12  1  0
M  END
$$$$
Mac1-DLS-X0548_0A
     RDKit          3D

 15 16  0  0  0  0  0  0  0  0999 V2000
    4.4300   45.8130   12.0540 C   0  0  0  0  0  0  0  0  0  0  0  0
    5.5290   46.6620   11.6270 N   0  0  0  0  0  0  0  0  0  0  0  0
    6.6650   45.8390   11.2590 C   0  0  0  0  0  0  0  0  0  0  0  0
    5.9010   47.5820   12.6980 C   0  0  0  0  0  0  0  0  0  0  0  0
    6.5960   48.8340   12.2280 C   0  0  2  0  0  0  0  0  0  0  0  0
    7.9360   49.0150   12.0410 C   0  0  0  0  0  0  0  0  0  0  0  0
    8.2230   50.3490   11.9210 N   0  0  0  0  0  0  0  0  0  0  0  0
    6.0030   50.1410   12.1560 C   0  0  0  0  0  0  0  0  0  0  0  0
    7.0510   51.0640   11.9880 C   0  0  0  0  0  0  0  0  0  0  0  0
    6.8150   52.4280   11.8790 C   0  0  0  0  0  0  0  0  0  0  0  0
    5.5070   52.8780   11.9200 C   0  0  0  0  0  0  0  0  0  0  0  0
    4.6920   50.6130   12.2010 C   0  0  0  0  0  0  0  0  0  0  0  0
    4.4610   51.9770   12.0640 C   0  0  2  0  0  0  0  0  0  0  0  0
    3.2320   52.5820   11.9600 O   0  0  0  0  0  0  0  0  0  0  0  0
    2.0640   51.7560   11.9350 C   0  0  0  0  0  0  0  0  0  0  0  0
  2  1  1  0
  3  2  1  0
  4  2  1  0
  5  4  1  1
  6  5  1  0
  7  6  1  0
  8  5  1  0
  9  8  1  0
  9  7  1  0
 10  9  1  0
 11 10  1  0
 12  8  1  0
 13 12  1  0
 13 11  1  0
 13 14  1  6
 15 14  1  0
M  END
$$$$
Mac1-DLS-X0548_0B
     RDKit          3D

 15 16  0  0  0  0  0  0  0  0999 V2000
    2.9800   52.0410   -2.0660 C   0  0  0  0  0  0  0  0  0  0  0  0
    3.7510   53.2780   -1.9670 N   0  0  0  0  0  0  0  0  0  0  0  0
    2.8490   54.4250   -1.9530 C   0  0  0  0  0  0  0  0  0  0  0  0
    4.5910   53.2600   -0.7650 C   0  0  0  0  0  0  0  0  0  0  0  0
    5.4470   54.4820   -0.5830 C   0  0  0  0  0  0  0  0  0  0  0  0
    5.6020   55.2200    0.5550 C   0  0  0  0  0  0  0  0  0  0  0  0
    6.5100   56.2220    0.3520 N   0  0  0  0  0  0  0  0  0  0  0  0
    6.3130   55.0770   -1.5640 C   0  0  0  0  0  0  0  0  0  0  0  0
    6.9600   56.1600   -0.9430 C   0  0  0  0  0  0  0  0  0  0  0  0
    7.8610   56.9660   -1.6270 C   0  0  0  0  0  0  0  0  0  0  0  0
    8.1230   56.6850   -2.9570 C   0  0  0  0  0  0  0  0  0  0  0  0
    6.5820   54.8080   -2.9030 C   0  0  0  0  0  0  0  0  0  0  0  0
    7.4860   55.6170   -3.5850 C   0  0  0  0  0  0  0  0  0  0  0  0
    7.8750   55.4440   -4.8870 O   0  0  0  0  0  0  0  0  0  0  0  0
    7.3760   54.3090   -5.5930 C   0  0  0  0  0  0  0  0  0  0  0  0
  2  1  1  0
  3  2  1  0
  4  2  1  0
  5  4  1  0
  6  5  1  0
  7  6  1  0
  8  5  1  0
  9  8  1  0
  9  7  1  0
 10  9  1  0
 11 10  1  0
 12  8  1  0
 13 12  1  0
 13 11  1  0
 14 13  1  0
 15 14  1  0
M  END
$$$$
Mac1-DLS-X0587_0A
     RDKit          3D

 13 13  0  0  0  0  0  0  0  0999 V2000
   29.2940   51.0620   -4.7010 F   0  0  0  0  0  0  0  0  0  0  0  0
   29.6120   51.1180   -5.9860 C   0  0  2  0  0  0  0  0  0  0  0  0
   29.0720   50.0570   -6.5560 F   0  0  0  0  0  0  0  0  0  0  0  0
   30.9120   50.9440   -6.0770 F   0  0  0  0  0  0  0  0  0  0  0  0
   29.1650   52.4160   -6.6200 C   0  0  0  0  0  0  0  0  0  0  0  0
   28.5040   52.3540   -7.7810 N   0  0  0  0  0  0  0  0  0  0  0  0
   28.1160   53.5460   -8.2550 C   0  0  0  0  0  0  0  0  0  0  0  0
   29.4880   53.4960   -5.8970 N   0  0  0  0  0  0  0  0  0  0  0  0
   29.0730   54.6570   -6.4180 C   0  0  0  0  0  0  0  0  0  0  0  0
   28.3590   54.7510   -7.6060 C   0  0  2  0  0  0  0  0  0  0  0  0
   27.7820   56.0480   -8.1020 C   0  0  0  0  0  0  0  0  0  0  0  0
   27.9070   57.0730   -7.4140 O   0  0  0  0  0  0  0  0  0  0  0  0
   27.1190   56.0350   -9.2560 N   0  0  0  0  0  0  0  0  0  0  0  0
  2  1  1  1
  3  2  1  0
  4  2  1  0
  5  2  1  0
  6  5  1  0
  7  6  1  0
  8  5  1  0
  9  8  1  0
 10  7  1  0
 10  9  1  0
 10 11  1  1
 12 11  1  0
 13 11  1  0
M  END
$$$$
Mac1-DLS-X0591_0A
     RDKit          3D

 14 14  0  0  0  0  0  0  0  0999 V2000
   31.0540   48.0060   -2.3320 O   0  0  0  0  0  0  0  0  0  0  0  0
   30.9740   47.7890   -3.7520 S   0  0  1  0  0  0  0  0  0  0  0  0
   32.1640   47.3950   -4.4570 O   0  0  0  0  0  0  0  0  0  0  0  0
   29.8680   46.6420   -3.9920 N   0  0  0  0  0  0  0  0  0  0  0  0
   30.3960   49.2880   -4.4910 C   0  0  0  0  0  0  0  0  0  0  0  0
   29.9530   50.3210   -3.6800 C   0  0  0  0  0  0  0  0  0  0  0  0
   29.5420   51.5080   -4.2570 C   0  0  0  0  0  0  0  0  0  0  0  0
   30.4060   49.4300   -5.8730 C   0  0  0  0  0  0  0  0  0  0  0  0
   29.9800   50.6210   -6.4370 C   0  0  0  0  0  0  0  0  0  0  0  0
   29.5660   51.6760   -5.6380 C   0  0  2  0  0  0  0  0  0  0  0  0
   29.2490   53.0240   -6.1910 C   0  0  0  0  0  0  0  0  0  0  0  0
   29.3570   54.0280   -5.4940 O   0  0  0  0  0  0  0  0  0  0  0  0
   28.8440   53.0760   -7.4560 N   0  0  0  0  0  0  0  0  0  0  0  0
   28.4350   54.3190   -8.0820 C   0  0  0  0  0  0  0  0  0  0  0  0
  2  1  1  0
  3  2  1  0
  2  4  1  1
  5  2  1  0
  6  5  1  0
  7  6  1  0
  8  5  1  0
  9  8  1  0
 10  9  1  0
 10  7  1  0
 10 11  1  1
 12 11  1  0
 13 11  1  0
 14 13  1  0
M  END
$$$$
Mac1-DLS-X0592_0A
     RDKit          3D

 11 11  0  0  0  0  0  0  0  0999 V2000
   29.2110   49.3590   -6.8600 O   0  0  0  0  0  0  0  0  0  0  0  0
   28.8080   50.3570   -7.4650 C   0  0  0  0  0  0  0  0  0  0  0  0
   28.1960   50.3280   -8.6420 N   0  0  0  0  0  0  0  0  0  0  0  0
   29.0070   51.6770   -6.8360 C   0  0  1  0  0  0  0  0  0  0  0  0
   28.8140   52.9060   -7.4350 C   0  0  0  0  0  0  0  0  0  0  0  0
   29.0400   53.8370   -6.4930 N   0  0  0  0  0  0  0  0  0  0  0  0
   29.3660   53.2930   -5.2960 N   0  0  0  0  0  0  0  0  0  0  0  0
   29.3590   51.9900   -5.5140 C   0  0  0  0  0  0  0  0  0  0  0  0
   28.9730   55.2880   -6.6270 C   0  0  0  0  0  0  0  0  0  0  0  0
   28.7920   55.6900   -8.0700 C   0  0  0  0  0  0  0  0  0  0  0  0
   27.5240   55.2630   -8.5670 O   0  0  0  0  0  0  0  0  0  0  0  0
  2  1  1  0
  3  2  1  0
  4  2  1  1
  5  4  1  0
  6  5  1  0
  7  6  1  0
  8  4  1  0
  8  7  1  0
  9  6  1  0
 10  9  1  0
 11 10  1  0
M  END
$$$$
Mac1-DLS-X0598_0A
     RDKit          3D

 12 12  0  0  0  0  0  0  0  0999 V2000
   15.3850   43.7850  -18.6290 O   0  0  0  0  0  0  0  0  0  0  0  0
   14.9820   43.6560  -19.9940 S   0  0  2  0  0  0  0  0  0  0  0  0
   14.5910   42.3680  -20.4800 O   0  0  0  0  0  0  0  0  0  0  0  0
   16.2850   44.2440  -21.0060 C   0  0  0  0  0  0  0  0  0  0  0  0
   13.7120   44.6360  -20.2090 N   0  0  0  0  0  0  0  0  0  0  0  0
   12.9260   44.5630  -21.4480 C   0  0  0  0  0  0  0  0  0  0  0  0
   12.6960   45.8570  -22.2160 C   0  0  2  0  0  0  0  0  0  0  0  0
   13.9970   46.5540  -22.6270 C   0  0  0  0  0  0  0  0  0  0  0  0
   14.6350   47.4460  -21.5780 C   0  0  0  0  0  0  0  0  0  0  0  0
   13.6430   48.3730  -21.0100 N   0  0  0  0  0  0  0  0  0  0  0  0
   12.5030   47.6500  -20.4220 C   0  0  0  0  0  0  0  0  0  0  0  0
   11.7820   46.8310  -21.4750 C   0  0  0  0  0  0  0  0  0  0  0  0
  2  1  1  0
  3  2  1  0
  2  4  1  6
  5  2  1  0
  6  5  1  0
  7  6  1  1
  8  7  1  0
  9  8  1  0
 10  9  1  0
 11 10  1  0
 12  7  1  0
 12 11  1  0
M  END
$$$$
Mac1-DLS-X0600_0A
     RDKit          3D

 14 14  0  0  0  0  0  0  0  0999 V2000
   10.5950   57.8340   -7.7840 O   0  0  0  0  0  0  0  0  0  0  0  0
   11.2500   58.8330   -7.9690 C   0  0  0  0  0  0  0  0  0  0  0  0
   10.7530   60.0430   -7.8550 O   0  0  0  0  0  0  0  0  0  0  0  0
   12.7130   58.7920   -8.3340 C   0  0  0  0  0  0  0  0  0  0  0  0
   13.2590   60.0780   -8.6630 O   0  0  0  0  0  0  0  0  0  0  0  0
   13.0270   60.6390   -9.9000 C   0  0  0  0  0  0  0  0  0  0  0  0
   12.2710   59.9860  -10.8680 C   0  0  0  0  0  0  0  0  0  0  0  0
   12.0070   60.6130  -12.0700 C   0  0  0  0  0  0  0  0  0  0  0  0
   13.5380   61.9100  -10.1500 C   0  0  0  0  0  0  0  0  0  0  0  0
   13.2700   62.5330  -11.3570 C   0  0  0  0  0  0  0  0  0  0  0  0
   12.4930   61.8970  -12.3300 C   0  0  0  0  0  0  0  0  0  0  0  0
   12.1470   62.5590  -13.6190 C   0  0  0  0  0  0  0  0  0  0  0  0
   11.4490   61.9780  -14.4420 O   0  0  0  0  0  0  0  0  0  0  0  0
   12.6550   63.9370  -13.8940 C   0  0  0  0  0  0  0  0  0  0  0  0
  2  1  1  0
  3  2  1  0
  4  2  1  0
  5  4  1  0
  6  5  1  0
  7  6  1  0
  8  7  1  0
  9  6  1  0
 10  9  1  0
 11 10  1  0
 11  8  1  0
 12 11  1  0
 13 12  1  0
 14 12  1  0
M  END
$$$$
Mac1-DLS-X0626_0A
     RDKit          3D

 11 11  0  0  0  0  0  0  0  0999 V2000
   29.1760   52.9800   -6.0770 O   0  0  0  0  0  0  0  0  0  0  0  0
   28.7920   53.3220   -7.1910 C   0  0  0  0  0  0  0  0  0  0  0  0
   28.6490   54.7550   -7.6150 C   0  0  0  0  0  0  0  0  0  0  0  0
   29.1850   55.6930   -6.6170 C   0  0  0  0  0  0  0  0  0  0  0  0
   28.4540   52.4480   -8.1720 N   0  0  0  0  0  0  0  0  0  0  0  0
   28.5800   51.0850   -8.0700 C   0  0  0  0  0  0  0  0  0  0  0  0
   29.1300   50.2710   -6.6450 S   0  0  0  0  0  0  0  0  0  0  0  0
   28.8940   48.7780   -7.4740 C   0  0  0  0  0  0  0  0  0  0  0  0
   28.4460   48.9810   -8.7360 C   0  0  0  0  0  0  0  0  0  0  0  0
   28.2590   50.3120   -9.0770 N   0  0  0  0  0  0  0  0  0  0  0  0
   28.2030   47.9280   -9.7700 C   0  0  0  0  0  0  0  0  0  0  0  0
  2  1  1  0
  3  2  1  0
  4  3  1  0
  5  2  1  0
  6  5  1  0
  7  6  1  0
  8  7  1  0
  9  8  1  0
 10  9  1  0
 10  6  1  0
 11  9  1  0
M  END
$$$$
Mac1-DLS-X0628_0A
     RDKit          3D

 12 12  0  0  0  0  0  0  0  0999 V2000
   33.2090   46.1480   -8.0470 O   0  0  0  0  0  0  0  0  0  0  0  0
   32.2030   45.5370   -7.7390 C   0  0  0  0  0  0  0  0  0  0  0  0
   31.0670   45.7130   -8.3310 O   0  0  0  0  0  0  0  0  0  0  0  0
   32.1250   44.5370   -6.6220 C   0  0  0  0  0  0  0  0  0  0  0  0
   32.1970   45.1990   -5.2570 C   0  0  0  0  0  0  0  0  0  0  0  0
   33.4170   45.9920   -5.1060 N   0  0  0  0  0  0  0  0  0  0  0  0
   33.6390   47.2980   -5.3060 C   0  0  0  0  0  0  0  0  0  0  0  0
   32.5660   48.2820   -5.6020 C   0  0  0  0  0  0  0  0  0  0  0  0
   34.9140   47.5820   -5.1770 N   0  0  0  0  0  0  0  0  0  0  0  0
   34.5890   45.3560   -4.7990 N   0  0  0  0  0  0  0  0  0  0  0  0
   35.4450   46.3560   -4.8510 C   0  0  0  0  0  0  0  0  0  0  0  0
   36.8870   46.1800   -4.5360 C   0  0  0  0  0  0  0  0  0  0  0  0
  2  1  1  0
  3  2  1  0
  4  2  1  0
  5  4  1  0
  6  5  1  0
  7  6  1  0
  8  7  1  0
  9  7  1  0
 10  6  1  0
 11 10  1  0
 11  9  1  0
 12 11  1  0
M  END
$$$$
Mac1-DLS-X0631_0A
     RDKit          3D

 16 17  0  0  0  0  0  0  0  0999 V2000
   38.4150   41.3040   -3.1030 O   0  0  0  0  0  0  0  0  0  0  0  0
   37.5790   41.3640   -2.1980 C   0  0  0  0  0  0  0  0  0  0  0  0
   37.6480   40.4720   -1.0250 C   0  0  2  0  0  0  0  0  0  0  0  0
   38.4410   39.3650   -1.1200 O   0  0  0  0  0  0  0  0  0  0  0  0
   38.1900   38.6250    0.0050 C   0  0  0  0  0  0  0  0  0  0  0  0
   37.2980   39.2250    0.7710 C   0  0  0  0  0  0  0  0  0  0  0  0
   36.9390   40.4230    0.1250 C   0  0  0  0  0  0  0  0  0  0  0  0
   37.0650   43.8490   -3.8730 N   0  0  0  0  0  0  0  0  0  0  0  0
   36.1810   43.1700   -3.1600 C   0  0  1  0  0  0  0  0  0  0  0  0
   36.5210   42.2410   -2.2000 N   0  0  0  0  0  0  0  0  0  0  0  0
   34.9040   43.5360   -3.4110 N   0  0  0  0  0  0  0  0  0  0  0  0
   34.9810   44.5060   -4.2920 N   0  0  0  0  0  0  0  0  0  0  0  0
   36.2670   44.6620   -4.5560 N   0  0  0  0  0  0  0  0  0  0  0  0
   36.7640   45.6260   -5.5360 C   0  0  0  0  0  0  0  0  0  0  0  0
   37.6720   46.6380   -4.9080 C   0  0  0  0  0  0  0  0  0  0  0  0
   36.9840   47.3610   -3.8490 C   0  0  0  0  0  0  0  0  0  0  0  0
  2  1  1  0
  3  2  1  6
  4  3  1  0
  5  4  1  0
  6  5  1  0
  7  6  1  0
  7  3  1  0
  9  8  1  0
  9 10  1  1
 10  2  1  0
 11  9  1  0
 12 11  1  0
 13 12  1  0
 13  8  1  0
 14 13  1  0
 15 14  1  0
 16 15  1  0
M  END
$$$$
Mac1-DLS-X0655_0B
     RDKit          3D

 17 18  0  0  0  0  0  0  0  0999 V2000
   22.0830   25.6660    9.1970 O   0  0  0  0  0  0  0  0  0  0  0  0
   20.8720   25.5680    9.0210 C   0  0  0  0  0  0  0  0  0  0  0  0
   19.9070   25.5120   10.1700 C   0  0  0  0  0  0  0  0  0  0  0  0
   20.3420   25.4970    7.7970 N   0  0  0  0  0  0  0  0  0  0  0  0
   21.1340   25.3520    6.5870 C   0  0  0  0  0  0  0  0  0  0  0  0
   21.2160   26.6140    5.7110 C   0  0  1  0  0  0  0  0  0  0  0  0
   22.2940   26.3680    4.6280 C   0  0  0  0  0  0  0  0  0  0  0  0
   22.2320   27.4130    3.5300 C   0  0  0  0  0  0  0  0  0  0  0  0
   20.9310   27.4900    2.9410 O   0  0  0  0  0  0  0  0  0  0  0  0
   19.9600   27.8780    3.9080 C   0  0  0  0  0  0  0  0  0  0  0  0
   19.8490   26.8650    5.0280 C   0  0  0  0  0  0  0  0  0  0  0  0
   21.6020   27.8120    6.5960 C   0  0  1  0  0  0  0  0  0  0  0  0
   20.6260   28.6210    7.1780 C   0  0  0  0  0  0  0  0  0  0  0  0
   20.9780   29.6410    8.0490 C   0  0  0  0  0  0  0  0  0  0  0  0
   22.3080   29.8760    8.3420 C   0  0  0  0  0  0  0  0  0  0  0  0
   23.2860   29.0880    7.7690 C   0  0  0  0  0  0  0  0  0  0  0  0
   22.9390   28.0630    6.9040 C   0  0  0  0  0  0  0  0  0  0  0  0
  2  1  1  0
  3  2  1  0
  4  2  1  0
  5  4  1  0
  6  5  1  1
  7  6  1  0
  8  7  1  0
  9  8  1  0
 10  9  1  0
 11  6  1  0
 11 10  1  0
 12  6  1  0
 12 13  1  1
 14 13  1  0
 15 14  1  0
 16 15  1  0
 17 12  1  0
 17 16  1  0
M  END
$$$$
Mac1-DLS-X0662_0A
     RDKit          3D

 18 19  0  0  0  0  0  0  0  0999 V2000
   33.0980   44.4540   -5.1040 O   0  0  0  0  0  0  0  0  0  0  0  0
   33.9590   45.3600   -5.0970 C   0  0  0  0  0  0  0  0  0  0  0  0
   33.8090   46.4950   -5.6270 O   0  0  0  0  0  0  0  0  0  0  0  0
   35.2620   45.0860   -4.3910 C   0  0  1  0  0  0  0  0  0  0  0  0
   36.2850   46.0270   -4.4150 C   0  0  0  0  0  0  0  0  0  0  0  0
   37.4420   45.8190   -3.6910 C   0  0  0  0  0  0  0  0  0  0  0  0
   37.6000   44.6650   -2.9440 C   0  0  0  0  0  0  0  0  0  0  0  0
   35.4250   43.9110   -3.6550 C   0  0  0  0  0  0  0  0  0  0  0  0
   36.5950   43.6980   -2.9320 C   0  0  0  0  0  0  0  0  0  0  0  0
   36.8210   42.5040   -2.1970 N   0  0  0  0  0  0  0  0  0  0  0  0
   37.9350   41.7030   -2.2380 C   0  0  2  0  0  0  0  0  0  0  0  0
   38.8240   41.8320   -3.0810 O   0  0  0  0  0  0  0  0  0  0  0  0
   37.9780   40.5880   -1.2620 C   0  0  1  0  0  0  0  0  0  0  0  0
   37.0860   40.3370   -0.1550 C   0  0  0  0  0  0  0  0  0  0  0  0
   37.4820   39.1400    0.3500 C   0  0  0  0  0  0  0  0  0  0  0  0
   38.8670   39.5870   -1.4190 N   0  0  0  0  0  0  0  0  0  0  0  0
   38.5440   38.7130   -0.4300 N   0  0  0  0  0  0  0  0  0  0  0  0
   39.2880   37.4670   -0.3100 C   0  0  0  0  0  0  0  0  0  0  0  0
  2  1  1  0
  3  2  1  0
  4  2  1  1
  5  4  1  0
  6  5  1  0
  7  6  1  0
  8  4  1  0
  9  8  1  0
  9  7  1  0
 10  9  1  0
 11 10  1  0
 11 12  1  6
 13 11  1  0
 13 14  1  6
 15 14  1  0
 16 13  1  0
 17 15  1  0
 17 16  1  0
 18 17  1  0
M  CHG  1   1  -1
M  END
$$$$
Mac1-DLS-X0676_0B
     RDKit          3D

 13 14  0  0  0  0  0  0  0  0999 V2000
   38.6660   42.5180   -2.7150 O   0  0  0  0  0  0  0  0  0  0  0  0
   38.8850   41.5190   -3.3920 C   0  0  0  0  0  0  0  0  0  0  0  0
   39.2920   41.4720   -4.8410 C   0  0  0  0  0  0  0  0  0  0  0  0
   39.3110   39.9960   -5.0340 C   0  0  0  0  0  0  0  0  0  0  0  0
   39.5510   39.3340   -6.3510 C   0  0  0  0  0  0  0  0  0  0  0  0
   38.7840   40.2210   -2.9610 N   0  0  0  0  0  0  0  0  0  0  0  0
   39.0530   39.3220   -3.9800 N   0  0  0  0  0  0  0  0  0  0  0  0
   38.4220   39.7240   -1.6690 C   0  0  2  0  0  0  0  0  0  0  0  0
   38.9040   38.4910   -1.2380 C   0  0  0  0  0  0  0  0  0  0  0  0
   38.5010   37.9870   -0.0100 C   0  0  0  0  0  0  0  0  0  0  0  0
   37.6150   38.6960    0.7810 C   0  0  0  0  0  0  0  0  0  0  0  0
   37.1350   39.9190    0.3550 C   0  0  0  0  0  0  0  0  0  0  0  0
   37.5370   40.4450   -0.8640 C   0  0  0  0  0  0  0  0  0  0  0  0
  2  1  1  0
  3  2  1  0
  4  3  1  0
  5  4  1  0
  6  2  1  0
  7  6  1  0
  7  4  1  0
  8  6  1  6
  9  8  1  0
 10  9  1  0
 11 10  1  0
 12 11  1  0
 13 12  1  0
 13  8  1  0
M  END
$$$$
Mac1-DLS-X0681_0A
     RDKit          3D

 12 13  0  0  0  0  0  0  0  0999 V2000
   30.0660   48.8410   -5.8590 O   0  0  0  0  0  0  0  0  0  0  0  0
   29.5250   49.9360   -6.0390 C   0  0  1  0  0  0  0  0  0  0  0  0
   29.1340   50.7280   -5.0580 N   0  0  0  0  0  0  0  0  0  0  0  0
   29.3510   50.5360   -7.4160 C   0  0  2  0  0  0  0  0  0  0  0  0
   30.2650   51.6870   -7.4220 C   0  0  2  0  0  0  0  0  0  0  0  0
   31.4350   51.7070   -6.8160 N   0  0  0  0  0  0  0  0  0  0  0  0
   31.8790   53.0030   -6.9620 C   0  0  0  0  0  0  0  0  0  0  0  0
   30.9970   53.7290   -7.6830 C   0  0  0  0  0  0  0  0  0  0  0  0
   29.9630   52.8820   -7.9690 N   0  0  0  0  0  0  0  0  0  0  0  0
   28.7080   53.2230   -8.6420 C   0  0  0  0  0  0  0  0  0  0  0  0
   27.8120   52.0060   -8.7900 C   0  0  0  0  0  0  0  0  0  0  0  0
   27.9130   51.0830   -7.5830 C   0  0  0  0  0  0  0  0  0  0  0  0
  2  1  1  0
  2  3  1  1
  4  2  1  0
  5  4  1  0
  5  6  1  1
  7  6  1  0
  8  7  1  0
  9  8  1  0
  9  5  1  0
 10  9  1  0
 11 10  1  0
 12 11  1  0
  4 12  1  1
M  END
$$$$
Mac1-DLS-X0685_0A
     RDKit          3D

 11 11  0  0  0  0  0  0  0  0999 V2000
   29.8510   49.1340   -4.6390 N   0  0  0  0  0  0  0  0  0  0  0  0
   29.5110   49.9010   -5.4100 C   0  0  0  0  0  0  0  0  0  0  0  0
   29.0920   50.9030   -6.3490 C   0  0  0  0  0  0  0  0  0  0  0  0
   28.5380   50.5480   -7.5730 C   0  0  0  0  0  0  0  0  0  0  0  0
   28.0960   51.5350   -8.4330 C   0  0  0  0  0  0  0  0  0  0  0  0
   29.2020   52.2570   -6.0450 C   0  0  0  0  0  0  0  0  0  0  0  0
   28.7840   53.2270   -6.8630 N   0  0  0  0  0  0  0  0  0  0  0  0
   28.2320   52.8700   -8.0330 C   0  0  2  0  0  0  0  0  0  0  0  0
   27.7170   53.8590   -8.8090 N   0  0  0  0  0  0  0  0  0  0  0  0
   27.8050   55.2870   -8.5100 C   0  0  0  0  0  0  0  0  0  0  0  0
   29.1030   55.8830   -8.9980 C   0  0  0  0  0  0  0  0  0  0  0  0
  2  1  1  0
  3  2  1  0
  4  3  1  0
  5  4  1  0
  6  3  1  0
  7  6  1  0
  8  7  1  0
  8  5  1  0
  8  9  1  1
 10  9  1  0
 11 10  1  0
M  END
$$$$
Mac1-DLS-X0685_1A
     RDKit          3D

 13 13  0  0  0  0  0  0  0  0999 V2000
   30.6800   46.4950   -7.9130 O   0  0  0  0  0  0  0  0  0  0  0  0
   31.9820   45.9200   -7.5990 S   0  0  2  0  0  0  0  0  0  0  0  0
   33.1240   46.5310   -8.2220 O   0  0  0  0  0  0  0  0  0  0  0  0
   31.9400   44.4610   -7.8510 O   0  0  0  0  0  0  0  0  0  0  0  0
   32.2290   46.0910   -5.8530 C   0  0  0  0  0  0  0  0  0  0  0  0
   33.0160   47.3470   -5.4880 C   0  0  0  0  0  0  0  0  0  0  0  0
   34.4570   47.2040   -5.7390 N   0  0  0  0  0  0  0  0  0  0  0  0
   35.2080   46.2050   -4.9510 C   0  0  1  0  0  0  0  0  0  0  0  0
   36.6120   46.0080   -5.5100 C   0  0  0  0  0  0  0  0  0  0  0  0
   37.4390   45.0830   -4.6230 C   0  0  0  0  0  0  0  0  0  0  0  0
   37.5000   45.5900   -3.1900 C   0  0  0  0  0  0  0  0  0  0  0  0
   36.1050   45.7890   -2.6380 C   0  0  0  0  0  0  0  0  0  0  0  0
   35.2800   46.7220   -3.5260 C   0  0  0  0  0  0  0  0  0  0  0  0
  2  1  1  6
  3  2  1  0
  4  2  1  0
  5  2  1  0
  6  5  1  0
  7  6  1  0
  8  7  1  6
  9  8  1  0
 10  9  1  0
 11 10  1  0
 12 11  1  0
 13 12  1  0
 13  8  1  0
M  END
$$$$
Mac1-DLS-X0689_0A
     RDKit          3D

  8  8  0  0  0  0  0  0  0  0999 V2000
   28.0810   52.0880   -7.7600 C   0  0  0  0  0  0  0  0  0  0  0  0
   27.9340   51.1330   -8.8370 N   0  0  0  0  0  0  0  0  0  0  0  0
   28.3140   49.8500   -8.7860 C   0  0  0  0  0  0  0  0  0  0  0  0
   28.8400   49.4070   -7.6210 N   0  0  0  0  0  0  0  0  0  0  0  0
   29.1420   48.0970   -7.5830 C   0  0  0  0  0  0  0  0  0  0  0  0
   28.9280   47.2360   -8.6440 C   0  0  0  0  0  0  0  0  0  0  0  0
   28.3970   47.8080   -9.7910 C   0  0  0  0  0  0  0  0  0  0  0  0
   28.0950   49.1120   -9.8970 N   0  0  0  0  0  0  0  0  0  0  0  0
  2  1  1  0
  3  2  1  0
  4  3  1  0
  5  4  1  0
  6  5  1  0
  7  6  1  0
  8  7  1  0
  8  3  1  0
M  END
$$$$
Mac1-DLS-X0711_0A
     RDKit          3D

 14 14  0  0  0  0  0  0  0  0999 V2000
   29.2670   54.3860   -5.9150 O   0  0  0  0  0  0  0  0  0  0  0  0
   28.9990   53.6130   -6.8400 C   0  0  0  0  0  0  0  0  0  0  0  0
   28.5620   54.0270   -8.0180 N   0  0  0  0  0  0  0  0  0  0  0  0
   29.1500   52.1400   -6.6320 C   0  0  0  0  0  0  0  0  0  0  0  0
   28.9840   51.2440   -7.6790 C   0  0  0  0  0  0  0  0  0  0  0  0
   29.1220   49.8830   -7.4720 C   0  0  0  0  0  0  0  0  0  0  0  0
   29.4570   51.6470   -5.3710 C   0  0  0  0  0  0  0  0  0  0  0  0
   29.5960   50.2880   -5.1570 C   0  0  0  0  0  0  0  0  0  0  0  0
   29.4220   49.3930   -6.2070 C   0  0  1  0  0  0  0  0  0  0  0  0
   29.3610   47.9890   -5.9450 N   0  0  0  0  0  0  0  0  0  0  0  0
   30.4830   46.8350   -6.1950 S   0  0  1  0  0  0  0  0  0  0  0  0
   30.0640   45.6980   -5.4330 O   0  0  0  0  0  0  0  0  0  0  0  0
   30.6530   46.6950   -7.6080 O   0  0  0  0  0  0  0  0  0  0  0  0
   31.9730   47.4430   -5.5040 C   0  0  0  0  0  0  0  0  0  0  0  0
  2  1  1  0
  3  2  1  0
  4  2  1  0
  5  4  1  0
  6  5  1  0
  7  4  1  0
  8  7  1  0
  9  6  1  0
  9  8  1  0
  9 10  1  1
 11 10  1  0
 12 11  1  0
 13 11  1  0
 11 14  1  1
M  END
$$$$
Mac1-DLS-X0722_0A
     RDKit          3D

 12 12  0  0  0  0  0  0  0  0999 V2000
   29.0480   53.6220   -5.2380 O   0  0  0  0  0  0  0  0  0  0  0  0
   29.3120   52.7850   -6.1060 C   0  0  0  0  0  0  0  0  0  0  0  0
   30.1620   53.0090   -7.0990 N   0  0  0  0  0  0  0  0  0  0  0  0
   28.6630   51.4220   -6.0570 C   0  0  0  0  0  0  0  0  0  0  0  0
   28.4940   50.7630   -7.3990 C   0  0  2  0  0  0  0  0  0  0  0  0
   27.8640   51.2880   -8.5410 C   0  0  2  0  0  0  0  0  0  0  0  0
   27.2010   52.6140   -8.7060 C   0  0  0  0  0  0  0  0  0  0  0  0
   28.8270   49.4660   -7.7530 C   0  0  0  0  0  0  0  0  0  0  0  0
   29.5690   48.4620   -6.9430 C   0  0  0  0  0  0  0  0  0  0  0  0
   28.3920   49.2840   -9.0150 N   0  0  0  0  0  0  0  0  0  0  0  0
   27.8150   50.4020   -9.5220 N   0  0  0  0  0  0  0  0  0  0  0  0
   28.4330   48.0760   -9.8300 C   0  0  0  0  0  0  0  0  0  0  0  0
  2  1  1  0
  3  2  1  0
  4  2  1  0
  5  4  1  1
  6  5  1  0
  6  7  1  1
  8  5  1  0
  9  8  1  0
 10  8  1  0
 11 10  1  0
 11  6  1  0
 12 10  1  0
M  END
$$$$
Mac1-DLS-X0724_0A
     RDKit          3D

 14 15  0  0  0  0  0  0  0  0999 V2000
   27.5770   57.8080  -10.7310 C   0  0  0  0  0  0  0  0  0  0  0  0
   28.2040   56.7700   -9.9060 N   0  0  0  0  0  0  0  0  0  0  0  0
   27.3420   56.3770   -8.7890 C   0  0  0  0  0  0  0  0  0  0  0  0
   28.0200   55.3470   -7.9610 C   0  0  0  0  0  0  0  0  0  0  0  0
   28.0880   54.0080   -8.2490 C   0  0  0  0  0  0  0  0  0  0  0  0
   28.7630   53.4120   -7.2430 N   0  0  0  0  0  0  0  0  0  0  0  0
   29.1560   54.3070   -6.2910 N   0  0  0  0  0  0  0  0  0  0  0  0
   28.7080   55.4700   -6.7340 C   0  0  0  0  0  0  0  0  0  0  0  0
   29.0580   52.0250   -7.0880 C   0  0  1  0  0  0  0  0  0  0  0  0
   29.8460   51.6060   -6.0260 C   0  0  0  0  0  0  0  0  0  0  0  0
   29.9620   50.2570   -5.7460 C   0  0  0  0  0  0  0  0  0  0  0  0
   29.3260   49.3310   -6.5360 C   0  0  0  0  0  0  0  0  0  0  0  0
   28.5640   49.7500   -7.6120 C   0  0  0  0  0  0  0  0  0  0  0  0
   28.4290   51.0990   -7.8940 C   0  0  0  0  0  0  0  0  0  0  0  0
  2  1  1  0
  3  2  1  0
  4  3  1  0
  5  4  1  0
  6  5  1  0
  7  6  1  0
  8  7  1  0
  8  4  1  0
  9  6  1  1
 10  9  1  0
 11 10  1  0
 12 11  1  0
 13 12  1  0
 14 13  1  0
 14  9  1  0
M  END
$$$$
Mac1-DLS-X0729_0A
     RDKit          3D

 13 13  0  0  0  0  0  0  0  0999 V2000
   14.5940   28.2860  -12.7290 N   0  0  0  0  0  0  0  0  0  0  0  0
   13.8620   28.5150  -13.5630 C   0  0  0  0  0  0  0  0  0  0  0  0
   12.9130   28.7520  -14.6490 C   0  0  1  0  0  0  0  0  0  0  0  0
   13.5350   29.7640  -15.6370 C   0  0  1  0  0  0  0  0  0  0  0  0
   14.9610   29.4030  -16.0210 C   0  0  0  0  0  0  0  0  0  0  0  0
   12.5940   27.4160  -15.3370 C   0  0  0  0  0  0  0  0  0  0  0  0
   11.6880   27.6270  -16.5490 C   0  0  0  0  0  0  0  0  0  0  0  0
   12.3140   28.6080  -17.5270 C   0  0  0  0  0  0  0  0  0  0  0  0
   12.6500   29.8810  -16.8320 N   0  0  0  0  0  0  0  0  0  0  0  0
   12.4490   31.2930  -17.6180 S   0  0  2  0  0  0  0  0  0  0  0  0
   13.2040   32.2730  -16.9030 O   0  0  0  0  0  0  0  0  0  0  0  0
   11.0420   31.4840  -17.7710 O   0  0  0  0  0  0  0  0  0  0  0  0
   13.1560   31.1040  -19.2120 C   0  0  0  0  0  0  0  0  0  0  0  0
  2  1  1  0
  3  2  1  1
  4  3  1  0
  4  5  1  6
  6  3  1  0
  7  6  1  0
  8  7  1  0
  9  8  1  0
  9  4  1  0
 10  9  1  0
 11 10  1  0
 12 10  1  0
 10 13  1  6
M  END
$$$$
Mac1-DLS-X0729_0B
     RDKit          3D

 13 13  0  0  0  0  0  0  0  0999 V2000
   15.0510   28.4960  -13.3590 N   0  0  0  0  0  0  0  0  0  0  0  0
   14.3490   28.8030  -14.2000 C   0  0  0  0  0  0  0  0  0  0  0  0
   13.4050   29.1800  -15.2540 C   0  0  1  0  0  0  0  0  0  0  0  0
   14.0300   30.1950  -16.2370 C   0  0  1  0  0  0  0  0  0  0  0  0
   15.3640   29.7290  -16.7960 C   0  0  0  0  0  0  0  0  0  0  0  0
   12.8860   27.9290  -15.9800 C   0  0  0  0  0  0  0  0  0  0  0  0
   11.9090   28.3100  -17.0910 C   0  0  0  0  0  0  0  0  0  0  0  0
   12.5450   29.2940  -18.0580 C   0  0  0  0  0  0  0  0  0  0  0  0
   13.0390   30.4760  -17.3120 N   0  0  0  0  0  0  0  0  0  0  0  0
   12.1270   31.8190  -17.3430 S   0  0  2  0  0  0  0  0  0  0  0  0
   10.8610   31.4440  -17.8890 O   0  0  0  0  0  0  0  0  0  0  0  0
   12.8940   32.8200  -18.0110 O   0  0  0  0  0  0  0  0  0  0  0  0
   11.8740   32.3290  -15.6850 C   0  0  0  0  0  0  0  0  0  0  0  0
  2  1  1  0
  3  2  1  1
  4  3  1  0
  4  5  1  6
  6  3  1  0
  7  6  1  0
  8  7  1  0
  9  8  1  0
  9  4  1  0
 10  9  1  0
 11 10  1  0
 12 10  1  0
 10 13  1  1
M  END
$$$$
Mac1-DLS-X0729_1B
     RDKit          3D

 13 13  0  0  0  0  0  0  0  0999 V2000
   23.8090   60.0800    0.3410 N   0  0  0  0  0  0  0  0  0  0  0  0
   22.9490   60.8240    0.3060 C   0  0  0  0  0  0  0  0  0  0  0  0
   21.8440   61.7820    0.2100 C   0  0  1  0  0  0  0  0  0  0  0  0
   20.8850   61.3480   -0.9190 C   0  0  1  0  0  0  0  0  0  0  0  0
   20.3680   59.9350   -0.7290 C   0  0  0  0  0  0  0  0  0  0  0  0
   21.0870   61.8800    1.5430 C   0  0  0  0  0  0  0  0  0  0  0  0
   19.9340   62.8790    1.4390 C   0  0  0  0  0  0  0  0  0  0  0  0
   19.0020   62.5320    0.2810 C   0  0  0  0  0  0  0  0  0  0  0  0
   19.7750   62.3350   -0.9780 N   0  0  0  0  0  0  0  0  0  0  0  0
   19.1160   62.7080   -2.4140 S   0  0  2  0  0  0  0  0  0  0  0  0
   17.8100   63.2220   -2.1460 O   0  0  0  0  0  0  0  0  0  0  0  0
   19.2470   61.5530   -3.2410 O   0  0  0  0  0  0  0  0  0  0  0  0
   20.0790   63.9950   -3.1120 C   0  0  0  0  0  0  0  0  0  0  0  0
  2  1  1  0
  3  2  1  1
  4  3  1  0
  4  5  1  1
  6  3  1  0
  7  6  1  0
  8  7  1  0
  9  8  1  0
  9  4  1  0
 10  9  1  0
 11 10  1  0
 12 10  1  0
 10 13  1  6
M  END
$$$$
Mac1-DLS-X0737_0B
     RDKit          3D

 15 15  0  0  0  0  0  0  0  0999 V2000
   24.4030   41.8260  -26.2950 O   0  0  0  0  0  0  0  0  0  0  0  0
   24.1310   41.4690  -24.9360 S   0  0  2  0  0  0  0  0  0  0  0  0
   22.8110   41.6630  -24.4220 O   0  0  0  0  0  0  0  0  0  0  0  0
   25.2670   42.3050  -23.9080 C   0  0  0  0  0  0  0  0  0  0  0  0
   24.4700   39.8930  -24.7870 N   0  0  0  0  0  0  0  0  0  0  0  0
   25.8560   39.4400  -25.0790 C   0  0  0  0  0  0  0  0  0  0  0  0
   26.2120   38.2330  -24.2230 C   0  0  0  0  0  0  0  0  0  0  0  0
   25.1410   37.1470  -24.3460 C   0  0  0  0  0  0  0  0  0  0  0  0
   23.3950   38.8850  -24.9280 C   0  0  1  0  0  0  0  0  0  0  0  0
   23.1470   38.5080  -26.3800 C   0  0  0  0  0  0  0  0  0  0  0  0
   23.7290   37.6760  -24.0320 C   0  0  1  0  0  0  0  0  0  0  0  0
   22.6910   36.5810  -24.1710 C   0  0  0  0  0  0  0  0  0  0  0  0
   22.9480   35.5330  -24.7620 O   0  0  0  0  0  0  0  0  0  0  0  0
   21.5110   36.8300  -23.6070 N   0  0  0  0  0  0  0  0  0  0  0  0
   20.3880   35.9200  -23.7270 C   0  0  0  0  0  0  0  0  0  0  0  0
  2  1  1  0
  3  2  1  0
  2  4  1  1
  5  2  1  0
  6  5  1  0
  7  6  1  0
  8  7  1  0
  9  5  1  0
  9 10  1  6
 11  8  1  0
 11  9  1  0
 11 12  1  6
 13 12  1  0
 14 12  1  0
 15 14  1  0
M  END
$$$$
Mac1-DLS-X0742_0A
     RDKit          3D

 15 17  0  0  0  0  0  0  0  0999 V2000
   32.3070   51.7050   -6.9120 O   0  0  0  0  0  0  0  0  0  0  0  0
   31.3450   52.3080   -7.3790 C   0  0  0  0  0  0  0  0  0  0  0  0
   31.4610   53.7000   -7.9170 C   0  0  0  0  0  0  0  0  0  0  0  0
   30.1310   51.7080   -7.4600 N   0  0  0  0  0  0  0  0  0  0  0  0
   29.8330   50.4340   -6.8010 C   0  0  1  0  0  0  0  0  0  0  0  0
   28.5240   50.7790   -6.0840 C   0  0  0  0  0  0  0  0  0  0  0  0
   27.8470   51.8200   -7.0160 C   0  0  0  0  0  0  0  0  0  0  0  0
   28.8880   52.1770   -8.0850 C   0  0  2  0  0  0  0  0  0  0  0  0
   29.4190   49.4740   -7.9050 C   0  0  0  0  0  0  0  0  0  0  0  0
   29.6100   48.1060   -7.7400 C   0  0  0  0  0  0  0  0  0  0  0  0
   29.2340   47.2380   -8.7480 C   0  0  0  0  0  0  0  0  0  0  0  0
   28.6720   47.7630   -9.9050 C   0  0  0  0  0  0  0  0  0  0  0  0
   28.4850   49.0730  -10.1150 N   0  0  0  0  0  0  0  0  0  0  0  0
   28.8460   49.9120   -9.1290 C   0  0  0  0  0  0  0  0  0  0  0  0
   28.6620   51.3880   -9.3680 C   0  0  0  0  0  0  0  0  0  0  0  0
  2  1  1  0
  3  2  1  0
  4  2  1  0
  5  4  1  0
  5  6  1  1
  7  6  1  0
  8  7  1  1
  8  4  1  0
  9  5  1  0
 10  9  1  0
 11 10  1  0
 12 11  1  0
 13 12  1  0
 14 13  1  0
 14  9  1  0
 15 14  1  0
 15  8  1  0
M  END
$$$$
Mac1-DLS-X0766_0A
     RDKit          3D

 13 14  0  0  0  0  0  0  0  0999 V2000
   31.0630   45.7430   -8.4160 O   0  0  0  0  0  0  0  0  0  0  0  0
   31.9870   46.2180   -7.6300 C   0  0  0  0  0  0  0  0  0  0  0  0
   32.9900   46.7340   -8.0150 O   0  0  0  0  0  0  0  0  0  0  0  0
   31.7270   46.0090   -6.1640 C   0  0  2  0  0  0  0  0  0  0  0  0
   29.1130   48.0830   -7.2630 C   0  0  0  0  0  0  0  0  0  0  0  0
   28.6890   49.3810   -7.4780 C   0  0  0  0  0  0  0  0  0  0  0  0
   30.2310   49.1610   -5.5790 C   0  0  0  0  0  0  0  0  0  0  0  0
   31.6690   44.5170   -5.8030 C   0  0  0  0  0  0  0  0  0  0  0  0
   30.1940   44.2000   -5.6510 C   0  0  0  0  0  0  0  0  0  0  0  0
   29.9850   47.9460   -6.1550 C   0  0  1  0  0  0  0  0  0  0  0  0
   30.4260   46.6220   -5.5750 C   0  0  1  0  0  0  0  0  0  0  0  0
   29.3710   50.4220   -6.3470 S   0  0  0  0  0  0  0  0  0  0  0  0
   29.4140   45.4960   -5.8160 C   0  0  0  0  0  0  0  0  0  0  0  0
  2  1  1  0
  3  2  1  0
  4  2  1  6
  6  5  1  0
  8  4  1  0
  9  8  1  0
 10  5  1  1
 10  7  1  0
 11 10  1  0
 11  4  1  0
 12  7  1  0
 12  6  1  0
 11 13  1  6
 13  9  1  0
M  END
$$$$
Mac1-DLS-X0766_0B
     RDKit          3D

 13 14  0  0  0  0  0  0  0  0999 V2000
   23.7380   49.1880   11.1020 O   0  0  0  0  0  0  0  0  0  0  0  0
   23.8640   48.1840   10.2720 C   0  0  1  0  0  0  0  0  0  0  0  0
   24.4420   47.1830   10.5530 O   0  0  0  0  0  0  0  0  0  0  0  0
   23.1610   48.3220    8.9420 C   0  0  2  0  0  0  0  0  0  0  0  0
   21.2180   47.1350   11.3910 C   0  0  0  0  0  0  0  0  0  0  0  0
   20.9260   45.9830   12.0640 C   0  0  0  0  0  0  0  0  0  0  0  0
   21.0570   45.6700    9.6290 C   0  0  0  0  0  0  0  0  0  0  0  0
   23.2660   49.7030    8.2700 C   0  0  0  0  0  0  0  0  0  0  0  0
   21.9530   50.4140    8.5820 C   0  0  0  0  0  0  0  0  0  0  0  0
   21.3040   46.9640    9.9790 C   0  0  0  0  0  0  0  0  0  0  0  0
   21.6520   48.0420    8.9900 C   0  0  1  0  0  0  0  0  0  0  0  0
   20.7430   44.6950   10.9770 S   0  0  0  0  0  0  0  0  0  0  0  0
   21.0520   49.4180    9.2990 C   0  0  0  0  0  0  0  0  0  0  0  0
  2  1  1  1
  3  2  1  0
  4  2  1  0
  6  5  1  0
  4  8  1  1
  9  8  1  0
 10  7  1  0
 10  5  1  0
 11 10  1  1
 11  4  1  0
 12  7  1  0
 12  6  1  0
 13 11  1  0
 13  9  1  0
M  END
$$$$
Mac1-DLS-X0792_0A
     RDKit          3D

  9  9  0  0  0  0  0  0  0  0999 V2000
   15.9510   44.5010  -23.0810 O   0  0  0  0  0  0  0  0  0  0  0  0
   15.1460   45.6210  -23.4040 C   0  0  0  0  0  0  0  0  0  0  0  0
   14.2320   46.0080  -22.2610 C   0  0  2  0  0  0  0  0  0  0  0  0
   12.7970   46.2230  -22.7390 C   0  0  0  0  0  0  0  0  0  0  0  0
   11.8820   46.5410  -21.5540 C   0  0  1  0  0  0  0  0  0  0  0  0
   11.0960   45.3120  -21.1280 C   0  0  0  0  0  0  0  0  0  0  0  0
   12.6260   47.1370  -20.3620 C   0  0  0  0  0  0  0  0  0  0  0  0
   13.7520   47.9920  -20.7550 N   0  0  0  0  0  0  0  0  0  0  0  0
   14.7380   47.2800  -21.5780 C   0  0  0  0  0  0  0  0  0  0  0  0
  2  1  1  0
  3  2  1  6
  4  3  1  0
  5  4  1  0
  5  6  1  1
  7  5  1  0
  8  7  1  0
  9  3  1  0
  9  8  1  0
M  END
$$$$
Mac1-DLS-X0796_0B
     RDKit          3D

 15 17  0  0  0  0  0  0  0  0999 V2000
   25.6960   41.9490  -24.0220 O   0  0  0  0  0  0  0  0  0  0  0  0
   25.6230   40.8550  -24.5660 C   0  0  0  0  0  0  0  0  0  0  0  0
   24.5010   40.5700  -25.5400 C   0  0  2  0  0  0  0  0  0  0  0  0
   25.1070   40.8130  -26.9380 C   0  0  0  0  0  0  0  0  0  0  0  0
   24.4660   42.0840  -27.4260 C   0  0  0  0  0  0  0  0  0  0  0  0
   23.1040   42.0290  -26.7730 C   0  0  0  0  0  0  0  0  0  0  0  0
   23.3740   41.5060  -25.4250 N   0  0  0  0  0  0  0  0  0  0  0  0
   24.0190   39.1200  -25.3690 C   0  0  0  0  0  0  0  0  0  0  0  0
   25.2060   38.1920  -25.4490 C   0  0  0  0  0  0  0  0  0  0  0  0
   25.1530   36.9640  -26.1060 C   0  0  0  0  0  0  0  0  0  0  0  0
   26.2760   36.1600  -26.1890 C   0  0  0  0  0  0  0  0  0  0  0  0
   27.4600   36.5610  -25.6140 C   0  0  0  0  0  0  0  0  0  0  0  0
   27.5400   37.7670  -24.9340 C   0  0  0  0  0  0  0  0  0  0  0  0
   26.4140   38.5880  -24.8600 C   0  0  1  0  0  0  0  0  0  0  0  0
   26.5260   39.8820  -24.3510 N   0  0  0  0  0  0  0  0  0  0  0  0
  2  1  1  0
  3  2  1  0
  3  4  1  6
  5  4  1  0
  6  5  1  0
  7  6  1  0
  7  3  1  0
  8  3  1  0
  9  8  1  0
 10  9  1  0
 11 10  1  0
 12 11  1  0
 13 12  1  0
 14  9  1  0
 14 13  1  6
 15 14  1  0
 15  2  1  0
M  END
$$$$
Mac1-DLS-X0797_0B
     RDKit          3D

 15 16  0  0  0  0  0  0  0  0999 V2000
   24.7800   47.6700    9.5450 O   0  0  0  0  0  0  0  0  0  0  0  0
   24.3810   48.5950   10.2320 C   0  0  0  0  0  0  0  0  0  0  0  0
   24.6200   48.7340   11.5050 O   0  0  0  0  0  0  0  0  0  0  0  0
   23.5240   49.7160    9.7030 C   0  0  1  0  0  0  0  0  0  0  0  0
   23.7360   49.9110    8.2000 C   0  0  0  0  0  0  0  0  0  0  0  0
   22.4370   49.9720    7.6250 O   0  0  0  0  0  0  0  0  0  0  0  0
   21.4170   50.0780    8.6210 C   0  0  0  0  0  0  0  0  0  0  0  0
   22.0040   49.4750    9.8980 C   0  0  1  0  0  0  0  0  0  0  0  0
   21.5840   48.0370   10.1500 C   0  0  0  0  0  0  0  0  0  0  0  0
   21.3580   47.5710   11.4600 C   0  0  1  0  0  0  0  0  0  0  0  0
   21.3850   48.4900   12.6550 C   0  0  0  0  0  0  0  0  0  0  0  0
   21.4390   47.1560    9.0810 C   0  0  0  0  0  0  0  0  0  0  0  0
   21.0970   45.8300    9.2890 C   0  0  0  0  0  0  0  0  0  0  0  0
   20.9000   45.3650   10.5640 C   0  0  0  0  0  0  0  0  0  0  0  0
   21.0320   46.2250   11.6390 C   0  0  0  0  0  0  0  0  0  0  0  0
  2  1  1  0
  3  2  1  0
  4  2  1  6
  5  4  1  0
  6  5  1  0
  7  6  1  0
  8  7  1  0
  8  4  1  0
  8  9  1  6
 10  9  1  0
 10 11  1  6
 12  9  1  0
 13 12  1  0
 14 13  1  0
 15 14  1  0
 15 10  1  0
M  END
$$$$
Mac1-DLS-X0805_0A
     RDKit          3D

 17 18  0  0  0  0  0  0  0  0999 V2000
   31.1100   46.0120   -8.4030 O   0  0  0  0  0  0  0  0  0  0  0  0
   32.0660   46.1010   -7.6760 C   0  0  0  0  0  0  0  0  0  0  0  0
   33.2330   46.4730   -8.0770 O   0  0  0  0  0  0  0  0  0  0  0  0
   32.0230   45.7900   -6.2030 C   0  0  2  0  0  0  0  0  0  0  0  0
   31.9950   44.2810   -6.0140 C   0  0  0  0  0  0  0  0  0  0  0  0
   30.7210   43.6740   -6.3260 O   0  0  0  0  0  0  0  0  0  0  0  0
   29.6890   44.2140   -5.4930 C   0  0  0  0  0  0  0  0  0  0  0  0
   29.5070   45.6890   -5.7390 C   0  0  0  0  0  0  0  0  0  0  0  0
   30.8170   46.4500   -5.4830 C   0  0  2  0  0  0  0  0  0  0  0  0
   30.6990   47.9300   -5.8000 C   0  0  0  0  0  0  0  0  0  0  0  0
   29.5230   48.4540   -6.3350 C   0  0  0  0  0  0  0  0  0  0  0  0
   31.7610   48.7870   -5.5510 C   0  0  0  0  0  0  0  0  0  0  0  0
   31.6510   50.1430   -5.8150 C   0  0  0  0  0  0  0  0  0  0  0  0
   30.4720   50.6690   -6.3270 C   0  0  0  0  0  0  0  0  0  0  0  0
   29.4140   49.8140   -6.5950 C   0  0  0  0  0  0  0  0  0  0  0  0
   28.2080   50.1900   -7.1330 O   0  0  0  0  0  0  0  0  0  0  0  0
   27.9820   51.5670   -7.4330 C   0  0  0  0  0  0  0  0  0  0  0  0
  2  1  1  0
  3  2  1  0
  4  2  1  6
  5  4  1  0
  6  5  1  0
  7  6  1  0
  8  7  1  0
  9  8  1  0
  9  4  1  0
  9 10  1  6
 11 10  1  0
 12 10  1  0
 13 12  1  0
 14 13  1  0
 15 11  1  0
 15 14  1  0
 16 15  1  0
 17 16  1  0
M  END
$$$$
Mac1-DLS-X0814_0B
     RDKit          3D

 14 14  0  0  0  0  0  0  0  0999 V2000
   21.6730   36.8360  -23.7890 O   0  0  0  0  0  0  0  0  0  0  0  0
   22.8390   36.5910  -24.1140 C   0  0  0  0  0  0  0  0  0  0  0  0
   23.2190   35.4070  -24.5710 N   0  0  0  0  0  0  0  0  0  0  0  0
   23.9140   37.6520  -23.9930 C   0  0  1  0  0  0  0  0  0  0  0  0
   25.3430   37.1780  -24.3050 C   0  0  0  0  0  0  0  0  0  0  0  0
   26.3620   38.3130  -24.1980 C   0  0  0  0  0  0  0  0  0  0  0  0
   25.9540   39.4820  -25.0770 C   0  0  0  0  0  0  0  0  0  0  0  0
   24.5590   39.8900  -24.7770 N   0  0  0  0  0  0  0  0  0  0  0  0
   24.1850   41.4640  -24.8550 S   0  0  1  0  0  0  0  0  0  0  0  0
   22.8240   41.5830  -24.4360 O   0  0  0  0  0  0  0  0  0  0  0  0
   25.1980   42.1620  -24.1300 O   0  0  0  0  0  0  0  0  0  0  0  0
   24.2790   41.9370  -26.5410 C   0  0  0  0  0  0  0  0  0  0  0  0
   23.5150   38.8340  -24.8980 C   0  0  1  0  0  0  0  0  0  0  0  0
   23.2720   38.4140  -26.3410 C   0  0  0  0  0  0  0  0  0  0  0  0
  2  1  1  0
  3  2  1  0
  4  2  1  6
  5  4  1  0
  6  5  1  0
  7  6  1  0
  8  7  1  0
  9  8  1  0
 10  9  1  0
 11  9  1  0
  9 12  1  6
 13  4  1  0
 13  8  1  0
 13 14  1  6
M  END
$$$$
Mac1-DLS-X0822_0A
     RDKit          3D

 15 16  0  0  0  0  0  0  0  0999 V2000
   12.2410   49.8840  -20.2010 N   0  0  0  0  0  0  0  0  0  0  0  0
   11.0290   49.0650  -20.3390 C   0  0  2  0  0  0  0  0  0  0  0  0
   10.5040   48.5390  -18.9760 C   0  0  1  0  0  0  0  0  0  0  0  0
   11.3530   47.3570  -18.4830 C   0  0  0  0  0  0  0  0  0  0  0  0
   11.6170   46.3710  -19.6000 C   0  0  0  0  0  0  0  0  0  0  0  0
   12.2620   46.9990  -20.7100 O   0  0  0  0  0  0  0  0  0  0  0  0
   11.3810   47.9530  -21.3200 C   0  0  0  0  0  0  0  0  0  0  0  0
   10.3030   49.6040  -17.9120 C   0  0  1  0  0  0  0  0  0  0  0  0
   11.3950   50.1950  -17.2820 C   0  0  0  0  0  0  0  0  0  0  0  0
   11.2090   51.2920  -16.4490 C   0  0  1  0  0  0  0  0  0  0  0  0
   12.3640   51.8870  -16.0050 O   0  0  0  0  0  0  0  0  0  0  0  0
   12.2690   53.0690  -15.2050 C   0  0  0  0  0  0  0  0  0  0  0  0
    9.9330   51.7570  -16.1650 C   0  0  0  0  0  0  0  0  0  0  0  0
    8.8430   51.1350  -16.7510 C   0  0  0  0  0  0  0  0  0  0  0  0
    9.0290   50.0750  -17.6260 C   0  0  0  0  0  0  0  0  0  0  0  0
  2  1  1  1
  3  2  1  0
  3  4  1  1
  5  4  1  0
  6  5  1  0
  7  6  1  0
  7  2  1  0
  8  3  1  0
  8  9  1  6
 10  9  1  0
 10 11  1  6
 12 11  1  0
 13 10  1  0
 14 13  1  0
 15 14  1  0
 15  8  1  0
M  END
$$$$
Mac1-DLS-X0837_0A
     RDKit          3D

  8  8  0  0  0  0  0  0  0  0999 V2000
   29.8420   49.2490   -5.5220 I   0  0  0  0  0  0  0  0  0  0  0  0
   29.0670   50.9390   -6.5080 C   0  0  1  0  0  0  0  0  0  0  0  0
   29.2580   52.1300   -5.9340 C   0  0  0  0  0  0  0  0  0  0  0  0
   28.4130   50.8140   -7.7840 C   0  0  0  0  0  0  0  0  0  0  0  0
   28.0020   51.9460   -8.3880 C   0  0  0  0  0  0  0  0  0  0  0  0
   28.2150   53.1530   -7.8150 N   0  0  0  0  0  0  0  0  0  0  0  0
   28.8470   53.3260   -6.6030 C   0  0  0  0  0  0  0  0  0  0  0  0
   29.0630   54.4780   -6.1950 O   0  0  0  0  0  0  0  0  0  0  0  0
  2  1  1  6
  3  2  1  0
  4  2  1  0
  5  4  1  0
  6  5  1  0
  7  6  1  0
  7  3  1  0
  8  7  1  0
M  END
$$$$
Mac1-DLS-X0844_0A
     RDKit          3D

  8  8  0  0  0  0  0  0  0  0999 V2000
   29.7020   49.3400   -5.4550 Br  0  0  0  0  0  0  0  0  0  0  0  0
   29.0670   50.8990   -6.2950 C   0  0  1  0  0  0  0  0  0  0  0  0
   29.2400   52.0890   -5.6810 C   0  0  0  0  0  0  0  0  0  0  0  0
   28.5080   50.7990   -7.5950 C   0  0  0  0  0  0  0  0  0  0  0  0
   28.2010   51.9510   -8.2130 C   0  0  0  0  0  0  0  0  0  0  0  0
   28.4260   53.1480   -7.6140 N   0  0  0  0  0  0  0  0  0  0  0  0
   28.9310   53.2850   -6.3480 C   0  0  0  0  0  0  0  0  0  0  0  0
   29.0620   54.4180   -5.8670 O   0  0  0  0  0  0  0  0  0  0  0  0
  2  1  1  6
  3  2  1  0
  4  2  1  0
  5  4  1  0
  6  5  1  0
  7  6  1  0
  7  3  1  0
  8  7  1  0
M  END
$$$$
Mac1-DLS-X0852_0B
     RDKit          3D

 10 10  0  0  0  0  0  0  0  0999 V2000
   26.9360   57.4430   -4.9100 Br  0  0  0  0  0  0  0  0  0  0  0  0
   26.8900   57.2760   -6.8000 C   0  0  2  0  0  0  0  0  0  0  0  0
   25.7990   57.7710   -7.4830 C   0  0  0  0  0  0  0  0  0  0  0  0
   25.6950   57.5290   -8.8480 C   0  0  0  0  0  0  0  0  0  0  0  0
   24.5900   58.0780   -9.5880 C   0  0  0  0  0  0  0  0  0  0  0  0
   23.7010   58.5400  -10.1380 N   0  0  0  0  0  0  0  0  0  0  0  0
   27.8950   56.5780   -7.4380 C   0  0  0  0  0  0  0  0  0  0  0  0
   27.7910   56.3330   -8.7950 C   0  0  0  0  0  0  0  0  0  0  0  0
   26.6890   56.7930   -9.5150 C   0  0  0  0  0  0  0  0  0  0  0  0
   26.5870   56.5470  -10.8440 O   0  0  0  0  0  0  0  0  0  0  0  0
  2  1  1  1
  3  2  1  0
  4  3  1  0
  5  4  1  0
  6  5  1  0
  7  2  1  0
  8  7  1  0
  9  4  1  0
  9  8  1  0
 10  9  1  0
M  END
$$$$
Mac1-DLS-X0895_0A
     RDKit          3D

  7  7  0  0  0  0  0  0  0  0999 V2000
   29.2820   50.9680   -5.8300 O   0  0  0  0  0  0  0  0  0  0  0  0
   28.8030   50.8940   -6.9510 C   0  0  0  0  0  0  0  0  0  0  0  0
   28.0600   51.8320   -7.5440 N   0  0  0  0  0  0  0  0  0  0  0  0
   27.6270   51.4350   -8.8620 C   0  0  0  0  0  0  0  0  0  0  0  0
   28.9220   49.8370   -7.8280 N   0  0  0  0  0  0  0  0  0  0  0  0
   28.2720   50.0630   -9.0040 C   0  0  0  0  0  0  0  0  0  0  0  0
   28.2610   49.2850   -9.9600 O   0  0  0  0  0  0  0  0  0  0  0  0
  2  1  1  0
  3  2  1  0
  4  3  1  0
  5  2  1  0
  6  5  1  0
  6  4  1  0
  7  6  1  0
M  END
$$$$
Mac1-DLS-X0895_1A
     RDKit          3D

  7  7  0  0  0  0  0  0  0  0999 V2000
   28.6220   53.3930   -7.4990 O   0  0  0  0  0  0  0  0  0  0  0  0
   28.6270   52.1710   -7.5980 C   0  0  0  0  0  0  0  0  0  0  0  0
   28.9820   51.3080   -6.6400 N   0  0  0  0  0  0  0  0  0  0  0  0
   28.8490   49.9320   -7.0650 C   0  0  0  0  0  0  0  0  0  0  0  0
   28.2640   51.4420   -8.7060 N   0  0  0  0  0  0  0  0  0  0  0  0
   28.3820   50.0990   -8.5080 C   0  0  1  0  0  0  0  0  0  0  0  0
   28.1950   49.2410   -9.3690 O   0  0  0  0  0  0  0  0  0  0  0  0
  2  1  1  0
  3  2  1  0
  4  3  1  0
  5  2  1  0
  6  5  1  0
  6  4  1  0
  6  7  1  6
M  END
$$$$
Mac1-DLS-X0900_0A
     RDKit          3D

  6  6  0  0  0  0  0  0  0  0999 V2000
   36.9840   45.1980   -2.1760 O   0  0  0  0  0  0  0  0  0  0  0  0
   37.0260   45.6150   -3.3290 C   0  0  0  0  0  0  0  0  0  0  0  0
   37.2670   44.8670   -4.3930 N   0  0  0  0  0  0  0  0  0  0  0  0
   37.1640   45.5910   -5.6470 C   0  0  0  0  0  0  0  0  0  0  0  0
   37.2290   47.0370   -5.2150 C   0  0  0  0  0  0  0  0  0  0  0  0
   36.8270   47.0350   -3.7630 C   0  0  0  0  0  0  0  0  0  0  0  0
  2  1  1  0
  3  2  1  0
  4  3  1  0
  5  4  1  0
  6  5  1  0
  6  2  1  0
M  END
$$$$
Mac1-DLS-X0900_1A
     RDKit          3D

  6  6  0  0  0  0  0  0  0  0999 V2000
   29.2160   53.5850   -5.4660 O   0  0  0  0  0  0  0  0  0  0  0  0
   28.9710   52.6890   -6.2770 C   0  0  0  0  0  0  0  0  0  0  0  0
   29.0670   51.3900   -6.0320 N   0  0  0  0  0  0  0  0  0  0  0  0
   28.6030   50.5450   -7.1220 C   0  0  0  0  0  0  0  0  0  0  0  0
   27.9590   51.5290   -8.0770 C   0  0  0  0  0  0  0  0  0  0  0  0
   28.5220   52.8810   -7.6880 C   0  0  0  0  0  0  0  0  0  0  0  0
  2  1  1  0
  3  2  1  0
  4  3  1  0
  5  4  1  0
  6  5  1  0
  6  2  1  0
M  END
$$$$
Mac1-DLS-X0905_0A
     RDKit          3D

  7  7  0  0  0  0  0  0  0  0999 V2000
   29.1850   53.6730   -5.4880 O   0  0  0  0  0  0  0  0  0  0  0  0
   28.9150   52.5140   -6.0800 C   0  0  0  0  0  0  0  0  0  0  0  0
   28.3610   52.5590   -7.3210 N   0  0  0  0  0  0  0  0  0  0  0  0
   28.1580   51.3790   -7.9370 C   0  0  0  0  0  0  0  0  0  0  0  0
   28.4680   50.1580   -7.3720 C   0  0  0  0  0  0  0  0  0  0  0  0
   29.0030   50.1410   -6.0970 C   0  0  0  0  0  0  0  0  0  0  0  0
   29.2400   51.3280   -5.4210 C   0  0  0  0  0  0  0  0  0  0  0  0
  2  1  1  0
  3  2  1  0
  4  3  1  0
  5  4  1  0
  6  5  1  0
  7  6  1  0
  7  2  1  0
M  END
$$$$
Mac1-DLS-X0905_0B
     RDKit          3D

  7  7  0  0  0  0  0  0  0  0999 V2000
   18.5100   38.0940  -21.5980 O   0  0  0  0  0  0  0  0  0  0  0  0
   17.5500   38.9350  -21.9310 C   0  0  0  0  0  0  0  0  0  0  0  0
   17.9210   40.1500  -22.4590 N   0  0  0  0  0  0  0  0  0  0  0  0
   16.9240   40.9650  -22.8450 C   0  0  0  0  0  0  0  0  0  0  0  0
   15.5780   40.6510  -22.7280 C   0  0  0  0  0  0  0  0  0  0  0  0
   15.2330   39.4330  -22.1740 C   0  0  0  0  0  0  0  0  0  0  0  0
   16.2200   38.5460  -21.7690 C   0  0  0  0  0  0  0  0  0  0  0  0
  2  1  1  0
  3  2  1  0
  4  3  1  0
  5  4  1  0
  6  5  1  0
  7  6  1  0
  7  2  1  0
M  END
$$$$
Mac1-DLS-X0910_0A
     RDKit          3D

  6  6  0  0  0  0  0  0  0  0999 V2000
   29.2620   55.1270   -7.4130 N   0  0  0  0  0  0  0  0  0  0  0  0
   28.8780   53.9300   -6.9410 C   0  0  0  0  0  0  0  0  0  0  0  0
   28.1870   53.0150   -7.6980 N   0  0  0  0  0  0  0  0  0  0  0  0
   27.9480   51.9540   -6.9020 C   0  0  0  0  0  0  0  0  0  0  0  0
   28.4890   52.1960   -5.6380 N   0  0  0  0  0  0  0  0  0  0  0  0
   29.0720   53.4600   -5.7020 N   0  0  0  0  0  0  0  0  0  0  0  0
  2  1  1  0
  3  2  1  0
  4  3  1  0
  5  4  1  0
  6  5  1  0
  6  2  1  0
M  END
$$$$
Mac1-DLS-X0910_0B
     RDKit          3D

  6  6  0  0  0  0  0  0  0  0999 V2000
   24.7190   57.6630    0.9040 N   0  0  0  0  0  0  0  0  0  0  0  0
   23.4230   57.7770    0.6320 C   0  0  0  0  0  0  0  0  0  0  0  0
   22.8470   58.9610    0.3010 N   0  0  0  0  0  0  0  0  0  0  0  0
   21.5550   58.7010    0.0380 C   0  0  0  0  0  0  0  0  0  0  0  0
   21.3310   57.3640    0.2050 N   0  0  0  0  0  0  0  0  0  0  0  0
   22.5320   56.7970    0.5920 N   0  0  0  0  0  0  0  0  0  0  0  0
  2  1  1  0
  3  2  1  0
  4  3  1  0
  5  4  1  0
  6  5  1  0
  6  2  1  0
M  END
$$$$
Mac1-DLS-X0910_1A
     RDKit          3D

  6  6  0  0  0  0  0  0  0  0999 V2000
   29.4070   49.2360   -6.4600 N   0  0  0  0  0  0  0  0  0  0  0  0
   28.8570   48.8170   -7.6020 C   0  0  0  0  0  0  0  0  0  0  0  0
   28.9460   47.5310   -8.0360 N   0  0  0  0  0  0  0  0  0  0  0  0
   28.3220   47.4820   -9.2290 C   0  0  0  0  0  0  0  0  0  0  0  0
   27.8430   48.7280   -9.5460 N   0  0  0  0  0  0  0  0  0  0  0  0
   28.1950   49.5620   -8.4880 N   0  0  0  0  0  0  0  0  0  0  0  0
  2  1  1  0
  3  2  1  0
  4  3  1  0
  5  4  1  0
  6  5  1  0
  6  2  1  0
M  END
$$$$
Mac1-DLS-X0918_0A
     RDKit          3D

  7  7  0  0  0  0  0  0  0  0999 V2000
   28.3390   53.3110   -7.8790 N   0  0  0  0  0  0  0  0  0  0  0  0
   28.6490   52.1250   -7.2630 C   0  0  0  0  0  0  0  0  0  0  0  0
   29.0930   52.0880   -5.9400 C   0  0  0  0  0  0  0  0  0  0  0  0
   29.4130   50.8710   -5.3660 C   0  0  0  0  0  0  0  0  0  0  0  0
   29.3180   49.7000   -6.0160 N   0  0  0  0  0  0  0  0  0  0  0  0
   28.8840   49.7410   -7.2850 C   0  0  0  0  0  0  0  0  0  0  0  0
   28.5460   50.9120   -7.9380 C   0  0  0  0  0  0  0  0  0  0  0  0
  2  1  1  0
  3  2  1  0
  4  3  1  0
  5  4  1  0
  6  5  1  0
  7  6  1  0
  7  2  1  0
M  END
$$$$
Mac1-DLS-X0918_0B
     RDKit          3D

  7  7  0  0  0  0  0  0  0  0999 V2000
   24.2540   44.2920    5.6970 N   0  0  0  0  0  0  0  0  0  0  0  0
   24.3300   44.6250    7.0460 C   0  0  0  0  0  0  0  0  0  0  0  0
   24.5480   45.9410    7.4610 C   0  0  0  0  0  0  0  0  0  0  0  0
   24.6770   46.2150    8.8120 C   0  0  0  0  0  0  0  0  0  0  0  0
   24.5990   45.2720    9.7680 N   0  0  0  0  0  0  0  0  0  0  0  0
   24.3760   44.0100    9.3700 C   0  0  0  0  0  0  0  0  0  0  0  0
   24.2350   43.6450    8.0410 C   0  0  0  0  0  0  0  0  0  0  0  0
  2  1  1  0
  3  2  1  0
  4  3  1  0
  5  4  1  0
  6  5  1  0
  7  6  1  0
  7  2  1  0
M  END
$$$$
Mac1-DLS-X0918_1A
     RDKit          3D

  7  7  0  0  0  0  0  0  0  0999 V2000
   29.0100   53.2200   -5.2080 N   0  0  0  0  0  0  0  0  0  0  0  0
   28.9590   52.0500   -5.9360 C   0  0  0  0  0  0  0  0  0  0  0  0
   29.5020   50.8670   -5.4410 C   0  0  0  0  0  0  0  0  0  0  0  0
   29.4010   49.7080   -6.1920 C   0  0  0  0  0  0  0  0  0  0  0  0
   28.7950   49.6530   -7.3890 N   0  0  0  0  0  0  0  0  0  0  0  0
   28.2780   50.7990   -7.8660 C   0  0  0  0  0  0  0  0  0  0  0  0
   28.3400   52.0020   -7.1870 C   0  0  0  0  0  0  0  0  0  0  0  0
  2  1  1  0
  3  2  1  0
  4  3  1  0
  5  4  1  0
  6  5  1  0
  7  6  1  0
  7  2  1  0
M  END
$$$$
Mac1-DLS-X0918_1B
     RDKit          3D

  7  7  0  0  0  0  0  0  0  0999 V2000
   21.2770   44.0770   11.0340 N   0  0  0  0  0  0  0  0  0  0  0  0
   21.1960   45.3610   10.5890 C   0  0  0  0  0  0  0  0  0  0  0  0
   21.2240   46.4390   11.4740 C   0  0  0  0  0  0  0  0  0  0  0  0
   21.1800   47.7270   10.9740 C   0  0  0  0  0  0  0  0  0  0  0  0
   21.1210   48.0090    9.6630 N   0  0  0  0  0  0  0  0  0  0  0  0
   21.0890   46.9690    8.8140 C   0  0  0  0  0  0  0  0  0  0  0  0
   21.1180   45.6490    9.2260 C   0  0  0  0  0  0  0  0  0  0  0  0
  2  1  1  0
  3  2  1  0
  4  3  1  0
  5  4  1  0
  6  5  1  0
  7  6  1  0
  7  2  1  0
M  END
$$$$
Mac1-DLS-X0918_2B
     RDKit          3D

  7  7  0  0  0  0  0  0  0  0999 V2000
   14.3010   38.5700  -21.7040 N   0  0  0  0  0  0  0  0  0  0  0  0
   15.6400   38.9270  -21.8130 C   0  0  2  0  0  0  0  0  0  0  0  0
   16.0200   40.2370  -22.1200 C   0  0  0  0  0  0  0  0  0  0  0  0
   17.3600   40.5300  -22.3010 C   0  0  0  0  0  0  0  0  0  0  0  0
   18.3380   39.6100  -22.2010 N   0  0  0  0  0  0  0  0  0  0  0  0
   17.9700   38.3510  -21.9060 C   0  0  0  0  0  0  0  0  0  0  0  0
   16.6530   37.9720  -21.7000 C   0  0  0  0  0  0  0  0  0  0  0  0
  2  1  1  6
  3  2  1  0
  4  3  1  0
  5  4  1  0
  6  5  1  0
  7  2  1  0
  7  6  1  0
M  END
$$$$
Mac1-DLS-X0926_0A
     RDKit          3D

  7  7  0  0  0  0  0  0  0  0999 V2000
   29.1400   53.4290   -5.7660 O   0  0  0  0  0  0  0  0  0  0  0  0
   28.7850   52.3480   -6.2580 C   0  0  2  0  0  0  0  0  0  0  0  0
   29.1760   51.1810   -5.6890 N   0  0  0  0  0  0  0  0  0  0  0  0
   28.9510   49.9260   -6.1790 N   0  0  0  0  0  0  0  0  0  0  0  0
   28.2960   49.8510   -7.3050 C   0  0  0  0  0  0  0  0  0  0  0  0
   27.8050   50.9700   -7.9960 C   0  0  0  0  0  0  0  0  0  0  0  0
   28.0470   52.1950   -7.4780 C   0  0  0  0  0  0  0  0  0  0  0  0
  2  1  1  6
  3  2  1  0
  4  3  1  0
  5  4  1  0
  6  5  1  0
  7  6  1  0
  7  2  1  0
M  END
$$$$
Mac1-DLS-X0933_0A
     RDKit          3D

  7  7  0  0  0  0  0  0  0  0999 V2000
   28.2840   53.8650   -8.1520 N   0  0  0  0  0  0  0  0  0  0  0  0
   28.4550   52.6900   -7.6430 C   0  0  0  0  0  0  0  0  0  0  0  0
   29.0910   52.4060   -6.4910 N   0  0  0  0  0  0  0  0  0  0  0  0
   29.1670   51.0710   -5.8930 C   0  0  0  0  0  0  0  0  0  0  0  0
   29.0560   50.0140   -6.9550 C   0  0  0  0  0  0  0  0  0  0  0  0
   27.8890   50.2790   -7.8740 C   0  0  0  0  0  0  0  0  0  0  0  0
   27.8870   51.6740   -8.3250 N   0  0  0  0  0  0  0  0  0  0  0  0
  2  1  1  0
  3  2  1  0
  4  3  1  0
  5  4  1  0
  6  5  1  0
  7  6  1  0
  7  2  1  0
M  END
$$$$
Mac1-DLS-X0933_0B
     RDKit          3D

  7  7  0  0  0  0  0  0  0  0999 V2000
    7.5080   31.9100  -13.8500 N   0  0  0  0  0  0  0  0  0  0  0  0
    8.6470   32.4230  -14.2100 C   0  0  0  0  0  0  0  0  0  0  0  0
    9.0260   32.6300  -15.4860 N   0  0  0  0  0  0  0  0  0  0  0  0
   10.2550   33.3150  -15.8810 C   0  0  0  0  0  0  0  0  0  0  0  0
   11.3180   33.2050  -14.7960 C   0  0  0  0  0  0  0  0  0  0  0  0
   10.7850   33.4740  -13.4260 C   0  0  0  0  0  0  0  0  0  0  0  0
    9.4900   32.8210  -13.2320 N   0  0  0  0  0  0  0  0  0  0  0  0
  2  1  1  0
  3  2  1  0
  4  3  1  0
  5  4  1  0
  6  5  1  0
  7  2  1  0
  7  6  1  0
M  END
$$$$
Mac1-DLS-X0933_1A
     RDKit          3D

  7  7  0  0  0  0  0  0  0  0999 V2000
   15.4000   48.9390  -22.3120 N   0  0  0  0  0  0  0  0  0  0  0  0
   14.4850   48.1550  -21.8540 C   0  0  0  0  0  0  0  0  0  0  0  0
   14.2000   48.0270  -20.5480 N   0  0  0  0  0  0  0  0  0  0  0  0
   13.1360   47.1580  -20.0420 C   0  0  0  0  0  0  0  0  0  0  0  0
   12.9590   45.9750  -20.9780 C   0  0  0  0  0  0  0  0  0  0  0  0
   12.7510   46.4510  -22.3940 C   0  0  0  0  0  0  0  0  0  0  0  0
   13.7900   47.4250  -22.7540 N   0  0  0  0  0  0  0  0  0  0  0  0
  2  1  1  0
  3  2  1  0
  4  3  1  0
  5  4  1  0
  6  5  1  0
  7  6  1  0
  7  2  1  0
M  END
$$$$
Mac1-DLS-X0933_1B
     RDKit          3D

  7  7  0  0  0  0  0  0  0  0999 V2000
    7.2280   49.1940   -9.9470 N   0  0  0  0  0  0  0  0  0  0  0  0
    6.7830   48.7020   -8.8360 C   0  0  0  0  0  0  0  0  0  0  0  0
    7.2350   47.5780   -8.2400 N   0  0  0  0  0  0  0  0  0  0  0  0
    6.7330   47.0000   -6.9950 C   0  0  0  0  0  0  0  0  0  0  0  0
    6.1040   48.0790   -6.1500 C   0  0  0  0  0  0  0  0  0  0  0  0
    5.1540   48.9590   -6.9650 C   0  0  0  0  0  0  0  0  0  0  0  0
    5.7820   49.3750   -8.2360 N   0  0  0  0  0  0  0  0  0  0  0  0
  2  1  1  0
  3  2  1  0
  4  3  1  0
  5  4  1  0
  6  5  1  0
  7  6  1  0
  7  2  1  0
M  END
$$$$
Mac1-DLS-X0933_2A
     RDKit          3D

  7  7  0  0  0  0  0  0  0  0999 V2000
   31.2860   27.3020  -12.4280 N   0  0  0  0  0  0  0  0  0  0  0  0
   30.5030   27.1160  -13.4270 C   0  0  0  0  0  0  0  0  0  0  0  0
   29.2980   26.5250  -13.3500 N   0  0  0  0  0  0  0  0  0  0  0  0
   28.3840   26.2860  -14.4710 C   0  0  0  0  0  0  0  0  0  0  0  0
   28.7540   27.1480  -15.6750 C   0  0  0  0  0  0  0  0  0  0  0  0
   30.2450   27.3620  -15.9020 C   0  0  0  0  0  0  0  0  0  0  0  0
   30.9460   27.5320  -14.6290 N   0  0  0  0  0  0  0  0  0  0  0  0
  2  1  1  0
  3  2  1  0
  4  3  1  0
  5  4  1  0
  6  5  1  0
  7  2  1  0
  7  6  1  0
M  END
$$$$
Mac1-DLS-X0950_0A
     RDKit          3D

  6  5  0  0  0  0  0  0  0  0999 V2000
   33.1150   46.4370   -7.9950 O   0  0  0  0  0  0  0  0  0  0  0  0
   32.2620   45.6510   -7.6360 C   0  0  0  0  0  0  0  0  0  0  0  0
   31.1230   45.4820   -8.2600 O   0  0  0  0  0  0  0  0  0  0  0  0
   32.4880   44.7400   -6.4460 C   0  0  1  0  0  0  0  0  0  0  0  0
   33.6550   45.1560   -5.7500 O   0  0  0  0  0  0  0  0  0  0  0  0
   31.3080   44.7650   -5.5020 C   0  0  0  0  0  0  0  0  0  0  0  0
  2  1  1  0
  3  2  1  0
  4  2  1  0
  5  4  1  0
  4  6  1  1
M  END
$$$$
Mac1-DLS-X0950_1A
     RDKit          3D

  6  5  0  0  0  0  0  0  0  0999 V2000
   33.3300   46.1100   -7.9160 O   0  0  0  0  0  0  0  0  0  0  0  0
   32.2400   45.6510   -7.6190 C   0  0  0  0  0  0  0  0  0  0  0  0
   31.1460   45.8650   -8.2880 O   0  0  0  0  0  0  0  0  0  0  0  0
   32.0320   44.7300   -6.4340 C   0  0  2  0  0  0  0  0  0  0  0  0
   33.0650   44.9410   -5.4820 O   0  0  0  0  0  0  0  0  0  0  0  0
   32.0320   43.2930   -6.8990 C   0  0  0  0  0  0  0  0  0  0  0  0
  2  1  1  0
  3  2  1  0
  4  2  1  0
  5  4  1  0
  4  6  1  6
M  END
$$$$
Mac1-DLS-X0962_0A
     RDKit          3D

  7  7  0  0  0  0  0  0  0  0999 V2000
   29.5610   48.7430   -5.9990 N   0  0  0  0  0  0  0  0  0  0  0  0
   29.2030   49.7000   -6.5040 C   0  0  0  0  0  0  0  0  0  0  0  0
   28.7150   50.8740   -7.1710 C   0  0  0  0  0  0  0  0  0  0  0  0
   28.8460   52.1620   -6.6350 C   0  0  0  0  0  0  0  0  0  0  0  0
   28.3360   53.0640   -7.4280 N   0  0  0  0  0  0  0  0  0  0  0  0
   27.7970   52.2650   -8.5750 C   0  0  0  0  0  0  0  0  0  0  0  0
   28.1180   50.8450   -8.3090 N   0  0  0  0  0  0  0  0  0  0  0  0
  2  1  1  0
  3  2  1  0
  4  3  1  0
  5  4  1  0
  6  5  1  0
  7  6  1  0
  7  3  1  0
M  END
$$$$
Mac1-DLS-X0962_0B
     RDKit          3D

  7  7  0  0  0  0  0  0  0  0999 V2000
   27.5060   57.5100   -5.0650 N   0  0  0  0  0  0  0  0  0  0  0  0
   27.4560   57.2170   -6.1660 C   0  0  0  0  0  0  0  0  0  0  0  0
   27.3420   56.8210   -7.5390 C   0  0  0  0  0  0  0  0  0  0  0  0
   28.3980   56.3870   -8.3460 C   0  0  0  0  0  0  0  0  0  0  0  0
   27.9750   56.0570   -9.5360 N   0  0  0  0  0  0  0  0  0  0  0  0
   26.5120   56.2890   -9.4940 C   0  0  0  0  0  0  0  0  0  0  0  0
   26.2110   56.8030   -8.1500 N   0  0  0  0  0  0  0  0  0  0  0  0
  2  1  1  0
  3  2  1  0
  4  3  1  0
  5  4  1  0
  6  5  1  0
  7  6  1  0
  7  3  1  0
M  END
$$$$
Mac1-DLS-X0962_1A
     RDKit          3D

  7  7  0  0  0  0  0  0  0  0999 V2000
   34.5080   42.8670   -3.7820 N   0  0  0  0  0  0  0  0  0  0  0  0
   35.2470   43.7230   -3.9580 C   0  0  0  0  0  0  0  0  0  0  0  0
   36.2200   44.7630   -4.1760 C   0  0  0  0  0  0  0  0  0  0  0  0
   35.8920   46.1050   -4.3810 C   0  0  0  0  0  0  0  0  0  0  0  0
   36.9710   46.8630   -4.5430 N   0  0  0  0  0  0  0  0  0  0  0  0
   38.0810   45.8990   -4.4650 C   0  0  0  0  0  0  0  0  0  0  0  0
   37.4900   44.5600   -4.2130 N   0  0  0  0  0  0  0  0  0  0  0  0
  2  1  1  0
  3  2  1  0
  4  3  1  0
  5  4  1  0
  6  5  1  0
  7  6  1  0
  7  3  1  0
M  END
$$$$
Mac1-DLS-X0962_2A
     RDKit          3D

  7  7  0  0  0  0  0  0  0  0999 V2000
   29.1320   50.0190   -5.9870 N   0  0  0  0  0  0  0  0  0  0  0  0
   28.9700   51.0670   -6.4140 C   0  0  0  0  0  0  0  0  0  0  0  0
   28.8030   52.4060   -6.9060 C   0  0  0  0  0  0  0  0  0  0  0  0
   29.3330   53.4990   -6.2030 C   0  0  0  0  0  0  0  0  0  0  0  0
   29.0750   54.6180   -6.7960 N   0  0  0  0  0  0  0  0  0  0  0  0
   28.3130   54.2300   -8.0200 C   0  0  0  0  0  0  0  0  0  0  0  0
   28.1840   52.7400   -7.9820 N   0  0  0  0  0  0  0  0  0  0  0  0
  2  1  1  0
  3  2  1  0
  4  3  1  0
  5  4  1  0
  6  5  1  0
  7  6  1  0
  7  3  1  0
M  END
$$$$
Mac1-DLS-X0967_0A
     RDKit          3D

 10 11  0  0  0  0  0  0  0  0999 V2000
   28.2870   53.5600   -8.1980 C   0  0  0  0  0  0  0  0  0  0  0  0
   28.5510   54.7700   -7.6360 C   0  0  0  0  0  0  0  0  0  0  0  0
   28.5880   52.3850   -7.4880 C   0  0  0  0  0  0  0  0  0  0  0  0
   29.1600   52.5250   -6.2070 C   0  0  0  0  0  0  0  0  0  0  0  0
   29.4120   53.7420   -5.6510 N   0  0  0  0  0  0  0  0  0  0  0  0
   29.1040   54.8100   -6.3690 C   0  0  0  0  0  0  0  0  0  0  0  0
   28.3680   51.0830   -7.9630 C   0  0  0  0  0  0  0  0  0  0  0  0
   28.7210   50.0200   -7.1930 C   0  0  0  0  0  0  0  0  0  0  0  0
   29.2830   50.2530   -5.9480 C   0  0  0  0  0  0  0  0  0  0  0  0
   29.5060   51.4530   -5.4400 N   0  0  0  0  0  0  0  0  0  0  0  0
  2  1  1  0
  3  1  1  0
  4  3  1  0
  5  4  1  0
  6  5  1  0
  6  2  1  0
  7  3  1  0
  8  7  1  0
  9  8  1  0
 10  9  1  0
 10  4  1  0
M  END
$$$$
Mac1-DLS-X0969_0A
     RDKit          3D

 10 11  0  0  0  0  0  0  0  0999 V2000
   27.8170   54.3410   -8.5260 N   0  0  0  0  0  0  0  0  0  0  0  0
   28.4110   53.7910   -7.4520 C   0  0  0  0  0  0  0  0  0  0  0  0
   28.4810   52.4240   -7.2620 N   0  0  0  0  0  0  0  0  0  0  0  0
   29.1160   52.2830   -6.0320 C   0  0  0  0  0  0  0  0  0  0  0  0
   29.3810   53.4770   -5.5090 N   0  0  0  0  0  0  0  0  0  0  0  0
   28.9400   54.4370   -6.4280 N   0  0  0  0  0  0  0  0  0  0  0  0
   28.0610   51.3380   -8.0060 C   0  0  0  0  0  0  0  0  0  0  0  0
   28.2960   50.0940   -7.5470 C   0  0  0  0  0  0  0  0  0  0  0  0
   28.9610   49.9080   -6.3110 C   0  0  0  0  0  0  0  0  0  0  0  0
   29.3630   50.9810   -5.5600 C   0  0  0  0  0  0  0  0  0  0  0  0
  2  1  1  0
  3  2  1  0
  4  3  1  0
  5  4  1  0
  6  5  1  0
  6  2  1  0
  7  3  1  0
  8  7  1  0
  9  8  1  0
 10  9  1  0
 10  4  1  0
M  END
$$$$
Mac1-DLS-X1015_0A
     RDKit          3D

 15 16  0  0  0  0  0  0  0  0999 V2000
   37.5860   46.5810   -3.3670 Cl  0  0  0  0  0  0  0  0  0  0  0  0
   36.1170   46.4920   -4.2780 C   0  0  1  0  0  0  0  0  0  0  0  0
   35.2550   45.4510   -4.0550 C   0  0  0  0  0  0  0  0  0  0  0  0
   34.0490   45.4150   -4.7270 C   0  0  0  0  0  0  0  0  0  0  0  0
   35.8100   47.4960   -5.1600 C   0  0  0  0  0  0  0  0  0  0  0  0
   34.5920   47.4720   -5.8100 C   0  0  0  0  0  0  0  0  0  0  0  0
   33.7090   46.4250   -5.6010 C   0  0  1  0  0  0  0  0  0  0  0  0
   32.5170   46.3410   -6.3530 N   0  0  0  0  0  0  0  0  0  0  0  0
   32.4620   46.4260   -7.7030 C   0  0  0  0  0  0  0  0  0  0  0  0
   33.4150   46.5190   -8.4320 O   0  0  0  0  0  0  0  0  0  0  0  0
   31.1400   46.3280   -8.0740 N   0  0  0  0  0  0  0  0  0  0  0  0
   30.3080   46.1570   -7.0050 C   0  0  0  0  0  0  0  0  0  0  0  0
   29.0960   46.0000   -7.0620 O   0  0  0  0  0  0  0  0  0  0  0  0
   31.1840   46.1610   -5.7660 C   0  0  2  0  0  0  0  0  0  0  0  0
   30.7950   47.2670   -4.7960 C   0  0  0  0  0  0  0  0  0  0  0  0
  2  1  1  1
  3  2  1  0
  4  3  1  0
  5  2  1  0
  6  5  1  0
  7  6  1  0
  7  4  1  0
  7  8  1  6
  9  8  1  0
 10  9  1  0
 11  9  1  0
 12 11  1  0
 13 12  1  0
 14 12  1  0
 14  8  1  0
 14 15  1  1
M  END
$$$$
Mac1-DLS-X1018_0A
     RDKit          3D

 10 11  0  0  0  0  0  0  0  0999 V2000
   28.8780   55.4850   -6.6050 Cl  0  0  0  0  0  0  0  0  0  0  0  0
   28.9080   53.7740   -6.8380 C   0  0  0  0  0  0  0  0  0  0  0  0
   29.3160   53.0940   -5.8130 N   0  0  0  0  0  0  0  0  0  0  0  0
   29.3300   51.7710   -6.0790 N   0  0  0  0  0  0  0  0  0  0  0  0
   29.7440   50.8720   -5.1690 N   0  0  0  0  0  0  0  0  0  0  0  0
   29.6160   49.7210   -5.7550 N   0  0  0  0  0  0  0  0  0  0  0  0
   29.1300   49.8550   -7.0120 N   0  0  0  0  0  0  0  0  0  0  0  0
   28.9650   51.1510   -7.1900 C   0  0  0  0  0  0  0  0  0  0  0  0
   28.5020   51.9270   -8.2650 C   0  0  0  0  0  0  0  0  0  0  0  0
   28.4860   53.2550   -8.0920 C   0  0  0  0  0  0  0  0  0  0  0  0
  2  1  1  0
  3  2  1  0
  4  3  1  0
  5  4  1  0
  6  5  1  0
  7  6  1  0
  8  7  1  0
  8  4  1  0
  9  8  1  0
 10  9  1  0
 10  2  1  0
M  END
$$$$
Mac1-DLS-X1092_0B
     RDKit          3D

 18 21  0  0  0  0  0  0  0  0999 V2000
    7.2330   58.1410   -6.4690 O   0  0  0  0  0  0  0  0  0  0  0  0
    6.6040   57.1150   -5.7050 C   0  0  2  0  0  0  0  0  0  0  0  0
    7.6670   56.0960   -5.2630 C   0  0  2  0  0  0  0  0  0  0  0  0
    5.5340   56.5100   -6.6050 C   0  0  0  0  0  0  0  0  0  0  0  0
    5.0880   55.1770   -6.1610 N   0  0  0  0  0  0  0  0  0  0  0  0
    6.1430   54.2070   -5.8230 C   0  0  1  0  0  0  0  0  0  0  0  0
    7.5410   54.7920   -6.0680 C   0  0  0  0  0  0  0  0  0  0  0  0
    6.0390   53.7070   -4.3810 C   0  0  0  0  0  0  0  0  0  0  0  0
    6.5390   54.7520   -3.4280 C   0  0  2  0  0  0  0  0  0  0  0  0
    7.3760   55.7510   -3.8280 C   0  0  2  0  0  0  0  0  0  0  0  0
    6.3570   54.8920   -2.0090 C   0  0  0  0  0  0  0  0  0  0  0  0
    7.1320   55.9860   -1.6030 C   0  0  0  0  0  0  0  0  0  0  0  0
    7.8000   56.4830   -2.7240 N   0  0  0  0  0  0  0  0  0  0  0  0
    8.8780   57.4670   -2.6770 C   0  0  0  0  0  0  0  0  0  0  0  0
    7.1360   56.4280   -0.2890 C   0  0  0  0  0  0  0  0  0  0  0  0
    6.3570   55.7520    0.6370 C   0  0  0  0  0  0  0  0  0  0  0  0
    5.6000   54.6540    0.2580 C   0  0  0  0  0  0  0  0  0  0  0  0
    5.5950   54.2170   -1.0580 C   0  0  0  0  0  0  0  0  0  0  0  0
  2  1  1  6
  3  2  1  0
  4  2  1  0
  5  4  1  0
  6  5  1  0
  7  6  1  0
  3  7  1  6
  6  8  1  1
  9  8  1  1
 10  9  1  0
 10  3  1  0
 11  9  1  0
 12 11  1  0
 13 12  1  0
 10 13  1  6
 14 13  1  0
 15 12  1  0
 16 15  1  0
 17 16  1  0
 18 17  1  0
 18 11  1  0
M  END
$$$$
Mac1-UCSF-C058_0A
     RDKit          3D

 12 13  0  0  0  0  0  0  0  0999 V2000
   24.8750   35.5650  -27.0360 N   0  0  0  0  0  0  0  0  0  0  0  0
   25.1120   36.8270  -26.3670 C   0  0  0  0  0  0  0  0  0  0  0  0
   26.3950   37.0700  -25.8090 C   0  0  0  0  0  0  0  0  0  0  0  0
   26.6450   38.2830  -25.1540 C   0  0  0  0  0  0  0  0  0  0  0  0
   25.6220   39.2470  -25.0610 C   0  0  0  0  0  0  0  0  0  0  0  0
   25.8940   40.5320  -24.3660 O   0  0  0  0  0  0  0  0  0  0  0  0
   24.9930   41.6410  -24.5040 C   0  0  0  0  0  0  0  0  0  0  0  0
   25.3590   42.6970  -24.1190 O   0  0  0  0  0  0  0  0  0  0  0  0
   23.6430   41.4090  -25.0980 C   0  0  0  0  0  0  0  0  0  0  0  0
   23.2760   40.0570  -25.4990 C   0  0  0  0  0  0  0  0  0  0  0  0
   24.3540   39.0000  -25.6150 C   0  0  0  0  0  0  0  0  0  0  0  0
   24.1200   37.7720  -26.2680 C   0  0  0  0  0  0  0  0  0  0  0  0
  2  1  1  0
  3  2  1  0
  4  3  1  0
  5  4  1  0
  6  5  1  0
  7  6  1  0
  8  7  1  0
  9  7  1  0
 10  9  1  0
 11 10  1  0
 11  5  1  0
 12  2  1  0
 12 11  1  0
M  END
$$$$
Mac1-UCSF-C102_0A
     RDKit          3D

 13 14  0  0  0  0  0  0  0  0999 V2000
   41.5460   33.8530  -20.9510 C   0  0  0  0  0  0  0  0  0  0  0  0
   40.8710   35.2160  -20.8300 C   0  0  0  0  0  0  0  0  0  0  0  0
   39.9790   35.6080  -21.8270 C   0  0  0  0  0  0  0  0  0  0  0  0
   39.3460   36.8470  -21.7470 C   0  0  0  0  0  0  0  0  0  0  0  0
   38.3510   37.5280  -22.6610 C   0  0  0  0  0  0  0  0  0  0  0  0
   37.8950   37.1030  -23.6750 O   0  0  0  0  0  0  0  0  0  0  0  0
   38.0390   38.8300  -22.0620 C   0  0  0  0  0  0  0  0  0  0  0  0
   37.2910   39.6250  -22.4970 O   0  0  0  0  0  0  0  0  0  0  0  0
   38.8010   38.9690  -20.8390 N   0  0  0  0  0  0  0  0  0  0  0  0
   39.6210   37.7110  -20.6510 C   0  0  0  0  0  0  0  0  0  0  0  0
   40.5150   37.3270  -19.6460 C   0  0  0  0  0  0  0  0  0  0  0  0
   41.1440   36.0790  -19.7360 C   0  0  0  0  0  0  0  0  0  0  0  0
   40.8710   38.5260  -18.1480 Br  0  0  0  0  0  0  0  0  0  0  0  0
  2  1  1  0
  3  2  1  0
  4  3  1  0
  5  4  1  0
  6  5  1  0
  7  5  1  0
  8  7  1  0
  9  7  1  0
 10  4  1  0
 10  9  1  0
 11 10  1  0
 12 11  1  0
 12  2  1  0
 13 11  1  0
M  END
$$$$
Mac1-UCSF-C120_0A
     RDKit          3D

  8  8  0  0  0  0  0  0  0  0999 V2000
   29.7210   53.8140   -5.3890 C   0  0  0  0  0  0  0  0  0  0  0  0
   29.5330   52.4750   -6.0990 C   0  0  0  0  0  0  0  0  0  0  0  0
   29.9950   51.3090   -5.5050 C   0  0  0  0  0  0  0  0  0  0  0  0
   29.8170   50.1080   -6.1820 C   0  0  0  0  0  0  0  0  0  0  0  0
   29.2220   50.0710   -7.3570 N   0  0  0  0  0  0  0  0  0  0  0  0
   28.7780   51.1680   -7.9400 C   0  0  0  0  0  0  0  0  0  0  0  0
   28.1190   51.0750   -9.2260 N   0  0  0  0  0  0  0  0  0  0  0  0
   28.9070   52.4100   -7.3360 C   0  0  0  0  0  0  0  0  0  0  0  0
  2  1  1  0
  3  2  1  0
  4  3  1  0
  5  4  1  0
  6  5  1  0
  7  6  1  0
  8  6  1  0
  8  2  1  0
M  END
$$$$
Mac1-UCSF-C137_0A
     RDKit          3D

 10 10  0  0  0  0  0  0  0  0999 V2000
   12.6120   50.1330  -17.2500 N   0  0  0  0  0  0  0  0  0  0  0  0
   11.1680   50.2030  -17.1200 C   0  0  0  0  0  0  0  0  0  0  0  0
   10.6410   51.1110  -16.5620 O   0  0  0  0  0  0  0  0  0  0  0  0
   10.3340   49.0730  -17.7050 C   0  0  0  0  0  0  0  0  0  0  0  0
   10.9100   47.8240  -17.8720 C   0  0  0  0  0  0  0  0  0  0  0  0
   10.1620   46.7830  -18.3920 C   0  0  0  0  0  0  0  0  0  0  0  0
    8.8440   46.9980  -18.7510 C   0  0  0  0  0  0  0  0  0  0  0  0
    8.0850   45.9500  -19.2790 O   0  0  0  0  0  0  0  0  0  0  0  0
    8.2660   48.2450  -18.5830 C   0  0  0  0  0  0  0  0  0  0  0  0
    9.0120   49.2860  -18.0580 C   0  0  0  0  0  0  0  0  0  0  0  0
  2  1  1  0
  3  2  1  0
  4  2  1  0
  5  4  1  0
  6  5  1  0
  7  6  1  0
  8  7  1  0
  9  7  1  0
 10  9  1  0
 10  4  1  0
M  END
$$$$
Mac1-UCSF-C189_0A
     RDKit          3D

 11 11  0  0  0  0  0  0  0  0999 V2000
   13.2160   52.4750  -17.1730 C   0  0  0  0  0  0  0  0  0  0  0  0
   12.9940   51.2320  -16.5760 O   0  0  0  0  0  0  0  0  0  0  0  0
   11.8730   50.5190  -17.0250 C   0  0  0  0  0  0  0  0  0  0  0  0
   10.5960   51.0250  -16.8290 C   0  0  0  0  0  0  0  0  0  0  0  0
    9.4930   50.3110  -17.2750 C   0  0  0  0  0  0  0  0  0  0  0  0
    9.6630   49.0930  -17.9120 C   0  0  0  0  0  0  0  0  0  0  0  0
   10.9410   48.5840  -18.1010 C   0  0  0  0  0  0  0  0  0  0  0  0
   12.0440   49.2990  -17.6580 C   0  0  0  0  0  0  0  0  0  0  0  0
    8.4390   48.3120  -18.3930 C   0  0  0  0  0  0  0  0  0  0  0  0
    8.5760   47.2680  -19.0900 O   0  0  0  0  0  0  0  0  0  0  0  0
    7.2860   48.7060  -18.0760 O   0  0  0  0  0  0  0  0  0  0  0  0
  2  1  1  0
  3  2  1  0
  4  3  1  0
  5  4  1  0
  6  5  1  0
  7  6  1  0
  8  7  1  0
  8  3  1  0
  9  6  1  0
 10  9  1  0
 11  9  1  0
M  CHG  1  11  -1
M  END
$$$$
Mac1-UCSF-C194_0A
     RDKit          3D

 12 13  0  0  0  0  0  0  0  0999 V2000
   27.8350   55.5760   -8.9370 N   0  0  0  0  0  0  0  0  0  0  0  0
   28.3210   54.5020   -8.0900 C   0  0  0  0  0  0  0  0  0  0  0  0
   28.3230   53.1200   -8.5800 N   0  0  0  0  0  0  0  0  0  0  0  0
   28.8210   52.0210   -7.7020 C   0  0  0  0  0  0  0  0  0  0  0  0
   28.8270   50.6930   -8.1810 C   0  0  0  0  0  0  0  0  0  0  0  0
   29.2940   49.6630   -7.3620 C   0  0  0  0  0  0  0  0  0  0  0  0
   29.7590   49.9470   -6.0710 C   0  0  0  0  0  0  0  0  0  0  0  0
   29.7490   51.2580   -5.6020 C   0  0  0  0  0  0  0  0  0  0  0  0
   29.2780   52.3010   -6.4320 C   0  0  0  0  0  0  0  0  0  0  0  0
   29.2840   53.7420   -5.9130 C   0  0  0  0  0  0  0  0  0  0  0  0
   29.6750   53.9710   -4.8130 O   0  0  0  0  0  0  0  0  0  0  0  0
   28.8010   54.8010   -6.7570 N   0  0  0  0  0  0  0  0  0  0  0  0
  2  1  1  0
  3  2  1  0
  4  3  1  0
  5  4  1  0
  6  5  1  0
  7  6  1  0
  8  7  1  0
  9  8  1  0
  9  4  1  0
 10  9  1  0
 11 10  1  0
 12 10  1  0
 12  2  1  0
M  END
$$$$
Mac1-UCSF-C242_0A
     RDKit          3D

 11 12  0  0  0  0  0  0  0  0999 V2000
   28.2570   51.7210   -9.1280 N   0  0  0  0  0  0  0  0  0  0  0  0
   28.6230   50.3170   -9.1460 C   0  0  0  0  0  0  0  0  0  0  0  0
   28.4870   49.6060  -10.2460 N   0  0  0  0  0  0  0  0  0  0  0  0
   28.7830   48.3250  -10.3300 C   0  0  0  0  0  0  0  0  0  0  0  0
   29.2970   47.6850   -9.2040 C   0  0  0  0  0  0  0  0  0  0  0  0
   29.4750   48.4150   -7.9840 C   0  0  0  0  0  0  0  0  0  0  0  0
   29.9920   47.8100   -6.8030 C   0  0  0  0  0  0  0  0  0  0  0  0
   30.1470   48.5710   -5.6490 C   0  0  0  0  0  0  0  0  0  0  0  0
   29.7950   49.9220   -5.6420 C   0  0  0  0  0  0  0  0  0  0  0  0
   29.2910   50.5160   -6.7850 C   0  0  0  0  0  0  0  0  0  0  0  0
   29.1360   49.7380   -7.9610 C   0  0  0  0  0  0  0  0  0  0  0  0
  2  1  1  0
  3  2  1  0
  4  3  1  0
  5  4  1  0
  6  5  1  0
  7  6  1  0
  8  7  1  0
  9  8  1  0
 10  9  1  0
 11  6  1  0
 11 10  1  0
 11  2  1  0
M  END
$$$$
Mac1-UCSF-C257_0A
     RDKit          3D

 13 14  0  0  0  0  0  0  0  0999 V2000
   13.2660   52.2440  -16.4250 C   0  0  0  0  0  0  0  0  0  0  0  0
   12.1300   51.2650  -16.7430 C   0  0  0  0  0  0  0  0  0  0  0  0
   10.8160   51.6150  -16.4120 C   0  0  0  0  0  0  0  0  0  0  0  0
    9.7690   50.7540  -16.6980 C   0  0  0  0  0  0  0  0  0  0  0  0
   10.0420   49.5290  -17.3310 C   0  0  0  0  0  0  0  0  0  0  0  0
    9.2180   48.5410  -17.7050 N   0  0  0  0  0  0  0  0  0  0  0  0
    9.8970   47.5570  -18.2600 C   0  0  0  0  0  0  0  0  0  0  0  0
   11.2510   47.8890  -18.2610 C   0  0  0  0  0  0  0  0  0  0  0  0
   11.3420   49.1660  -17.6580 C   0  0  0  0  0  0  0  0  0  0  0  0
   12.4150   50.0350  -17.3610 C   0  0  0  0  0  0  0  0  0  0  0  0
    9.2500   46.2840  -18.7870 C   0  0  0  0  0  0  0  0  0  0  0  0
    9.8370   45.1770  -18.6790 O   0  0  0  0  0  0  0  0  0  0  0  0
    8.1020   46.3440  -19.3030 O   0  0  0  0  0  0  0  0  0  0  0  0
  2  1  1  0
  3  2  1  0
  4  3  1  0
  5  4  1  0
  6  5  1  0
  7  6  1  0
  8  7  1  0
  9  5  1  0
  9  8  1  0
 10  9  1  0
 10  2  1  0
 11  7  1  0
 12 11  1  0
 13 11  1  0
M  CHG  1  13  -1
M  END
$$$$
Mac1-UCSF-C279_0A
     RDKit          3D

  9 10  0  0  0  0  0  0  0  0999 V2000
    7.6660   43.2020   13.2180 C   0  0  0  0  0  0  0  0  0  0  0  0
    8.7740   43.7530   12.7450 N   0  0  0  0  0  0  0  0  0  0  0  0
    8.3790   44.8590   12.0550 N   0  0  0  0  0  0  0  0  0  0  0  0
    7.0260   45.0390   12.0590 C   0  0  0  0  0  0  0  0  0  0  0  0
    6.1170   45.9850   11.4700 C   0  0  0  0  0  0  0  0  0  0  0  0
    4.7560   45.8930   11.6810 C   0  0  0  0  0  0  0  0  0  0  0  0
    4.2500   44.8250   12.4270 C   0  0  0  0  0  0  0  0  0  0  0  0
    5.1250   43.8850   12.9780 C   0  0  0  0  0  0  0  0  0  0  0  0
    6.5210   43.9870   12.7930 C   0  0  0  0  0  0  0  0  0  0  0  0
  2  1  1  0
  3  2  1  0
  4  3  1  0
  5  4  1  0
  6  5  1  0
  7  6  1  0
  8  7  1  0
  9  8  1  0
  9  1  1  0
  9  4  1  0
M  END
$$$$
Mac1-UCSF-C295_0A
     RDKit          3D

 15 16  0  0  0  0  0  0  0  0999 V2000
    6.5330   48.7580  -18.4570 O   0  0  0  0  0  0  0  0  0  0  0  0
    7.2260   47.7380  -18.6990 C   0  0  0  0  0  0  0  0  0  0  0  0
    6.6810   46.6520  -19.0200 O   0  0  0  0  0  0  0  0  0  0  0  0
    8.7470   47.8200  -18.5740 C   0  0  0  0  0  0  0  0  0  0  0  0
    9.5190   46.6720  -18.6550 C   0  0  0  0  0  0  0  0  0  0  0  0
   10.8340   46.7210  -18.5450 N   0  0  0  0  0  0  0  0  0  0  0  0
   11.4570   47.8730  -18.3470 C   0  0  0  0  0  0  0  0  0  0  0  0
   10.7560   49.0680  -18.2550 C   0  0  0  0  0  0  0  0  0  0  0  0
    9.3680   49.0480  -18.3720 C   0  0  0  0  0  0  0  0  0  0  0  0
   11.5060   50.3820  -18.0260 C   0  0  0  0  0  0  0  0  0  0  0  0
   12.5850   50.4080  -17.1650 C   0  0  0  0  0  0  0  0  0  0  0  0
   13.2600   51.6050  -16.9450 C   0  0  0  0  0  0  0  0  0  0  0  0
   12.8600   52.7650  -17.5920 C   0  0  0  0  0  0  0  0  0  0  0  0
   11.7850   52.7340  -18.4630 C   0  0  0  0  0  0  0  0  0  0  0  0
   11.1070   51.5440  -18.6750 C   0  0  0  0  0  0  0  0  0  0  0  0
  2  1  1  0
  3  2  1  0
  4  2  1  0
  5  4  1  0
  6  5  1  0
  7  6  1  0
  8  7  1  0
  9  4  1  0
  9  8  1  0
 10  8  1  0
 11 10  1  0
 12 11  1  0
 13 12  1  0
 14 13  1  0
 15 14  1  0
 15 10  1  0
M  CHG  1   1  -1
M  END
$$$$
Mac1-UCSF-C309_0A
     RDKit          3D

 13 14  0  0  0  0  0  0  0  0999 V2000
   11.8760   52.9830  -15.4580 C   0  0  0  0  0  0  0  0  0  0  0  0
   11.5170   51.7080  -16.2370 C   0  0  0  0  0  0  0  0  0  0  0  0
   12.5150   50.9270  -16.8250 C   0  0  0  0  0  0  0  0  0  0  0  0
   12.1970   49.7590  -17.5200 C   0  0  0  0  0  0  0  0  0  0  0  0
   10.8500   49.3770  -17.6360 C   0  0  0  0  0  0  0  0  0  0  0  0
   10.2040   48.2880  -18.2590 C   0  0  0  0  0  0  0  0  0  0  0  0
    8.8480   48.4700  -18.0170 C   0  0  0  0  0  0  0  0  0  0  0  0
    8.6750   49.5690  -17.3070 N   0  0  0  0  0  0  0  0  0  0  0  0
    9.8610   50.1450  -17.0550 C   0  0  0  0  0  0  0  0  0  0  0  0
   10.1880   51.3130  -16.3470 C   0  0  0  0  0  0  0  0  0  0  0  0
    7.7330   47.5380  -18.4910 C   0  0  0  0  0  0  0  0  0  0  0  0
    6.5280   47.9040  -18.4040 O   0  0  0  0  0  0  0  0  0  0  0  0
    8.0200   46.4010  -18.9570 O   0  0  0  0  0  0  0  0  0  0  0  0
  2  1  1  0
  3  2  1  0
  4  3  1  0
  5  4  1  0
  6  5  1  0
  7  6  1  0
  8  7  1  0
  9  8  1  0
  9  5  1  0
 10  9  1  0
 10  2  1  0
 11  7  1  0
 12 11  1  0
 13 11  1  0
M  CHG  1  13  -1
M  END
$$$$
Mac1-UCSF-C327_0A
     RDKit          3D

 15 16  0  0  0  0  0  0  0  0999 V2000
    9.8270   44.7920  -18.9930 O   0  0  0  0  0  0  0  0  0  0  0  0
    9.1770   45.8720  -19.0590 C   0  0  1  0  0  0  0  0  0  0  0  0
    8.0010   45.8730  -19.5080 O   0  0  0  0  0  0  0  0  0  0  0  0
    9.7780   47.1670  -18.5200 C   0  0  0  0  0  0  0  0  0  0  0  0
    8.9190   48.1870  -18.1570 C   0  0  0  0  0  0  0  0  0  0  0  0
    9.4740   49.3510  -17.6510 C   0  0  0  0  0  0  0  0  0  0  0  0
   10.8480   49.4680  -17.5300 C   0  0  0  0  0  0  0  0  0  0  0  0
   11.6330   48.4590  -17.8840 N   0  0  0  0  0  0  0  0  0  0  0  0
   11.1490   47.3250  -18.3710 C   0  0  0  0  0  0  0  0  0  0  0  0
   11.4320   50.7550  -16.9360 C   0  0  2  0  0  0  0  0  0  0  0  0
   12.7430   51.1360  -17.1780 C   0  0  0  0  0  0  0  0  0  0  0  0
   13.2430   52.2970  -16.5990 C   0  0  0  0  0  0  0  0  0  0  0  0
   12.4370   53.0640  -15.7570 C   0  0  0  0  0  0  0  0  0  0  0  0
   11.1410   52.6720  -15.4910 C   0  0  0  0  0  0  0  0  0  0  0  0
   10.6390   51.5140  -16.0770 C   0  0  0  0  0  0  0  0  0  0  0  0
  2  1  1  1
  3  2  1  0
  4  2  1  0
  5  4  1  0
  6  5  1  0
  7  6  1  0
  8  7  1  0
  9  4  1  0
  9  8  1  0
 10  7  1  1
 11 10  1  0
 12 11  1  0
 13 12  1  0
 14 13  1  0
 15 10  1  0
 15 14  1  0
M  CHG  1   1  -1
M  END
$$$$
Mac1-UCSF-C362_0A
     RDKit          3D

 13 14  0  0  0  0  0  0  0  0999 V2000
   12.7480   52.8960  -15.8330 C   0  0  0  0  0  0  0  0  0  0  0  0
   11.8810   51.7910  -16.4210 C   0  0  0  0  0  0  0  0  0  0  0  0
   10.5030   51.8810  -16.3090 C   0  0  0  0  0  0  0  0  0  0  0  0
    9.6940   50.8820  -16.8300 C   0  0  0  0  0  0  0  0  0  0  0  0
   10.2660   49.7780  -17.4820 C   0  0  0  0  0  0  0  0  0  0  0  0
    9.7390   48.6260  -18.1020 C   0  0  0  0  0  0  0  0  0  0  0  0
   10.8340   47.9130  -18.5520 C   0  0  0  0  0  0  0  0  0  0  0  0
   11.9410   48.5650  -18.2300 N   0  0  0  0  0  0  0  0  0  0  0  0
   11.6440   49.6960  -17.5920 C   0  0  0  0  0  0  0  0  0  0  0  0
   12.4570   50.6960  -17.0620 C   0  0  0  0  0  0  0  0  0  0  0  0
    8.2810   48.2250  -18.2750 C   0  0  0  0  0  0  0  0  0  0  0  0
    7.3800   48.9740  -17.8080 O   0  0  0  0  0  0  0  0  0  0  0  0
    8.0020   47.1620  -18.8940 O   0  0  0  0  0  0  0  0  0  0  0  0
  2  1  1  0
  3  2  1  0
  4  3  1  0
  5  4  1  0
  6  5  1  0
  7  6  1  0
  8  7  1  0
  9  5  1  0
  9  8  1  0
 10  9  1  0
 10  2  1  0
 11  6  1  0
 12 11  1  0
 13 11  1  0
M  CHG  1  13  -1
M  END
$$$$
Mac1-UCSF-P0115_0A
     RDKit          3D

 17 18  0  0  0  0  0  0  0  0999 V2000
   32.6740   47.2030   -6.4510 C   0  0  0  0  0  0  0  0  0  0  0  0
   32.6790   46.7700   -4.9760 C   0  0  1  0  0  0  0  0  0  0  0  0
   33.2080   47.8480   -4.0150 C   0  0  0  0  0  0  0  0  0  0  0  0
   31.3910   46.5060   -4.5180 O   0  0  0  0  0  0  0  0  0  0  0  0
   30.9640   45.2560   -4.7860 C   0  0  0  0  0  0  0  0  0  0  0  0
   29.8330   45.3530   -5.7260 C   0  0  0  0  0  0  0  0  0  0  0  0
   29.5160   46.4700   -6.6160 N   0  0  0  0  0  0  0  0  0  0  0  0
   29.2050   47.9030   -6.4040 C   0  0  0  0  0  0  0  0  0  0  0  0
   28.7620   48.6840   -7.4400 C   0  0  0  0  0  0  0  0  0  0  0  0
   28.5730   48.0380   -8.7950 C   0  0  2  0  0  0  0  0  0  0  0  0
   28.1850   48.6090   -9.6960 O   0  0  0  0  0  0  0  0  0  0  0  0
   28.8010   46.6710   -8.9410 N   0  0  0  0  0  0  0  0  0  0  0  0
   29.3000   45.8950   -7.8900 C   0  0  1  0  0  0  0  0  0  0  0  0
   29.6930   44.3580   -8.1430 S   0  0  0  0  0  0  0  0  0  0  0  0
   28.6190   49.9460   -6.9980 N   0  0  0  0  0  0  0  0  0  0  0  0
   28.9140   50.0210   -5.7110 C   0  0  0  0  0  0  0  0  0  0  0  0
   29.2860   48.7540   -5.3140 C   0  0  0  0  0  0  0  0  0  0  0  0
  2  1  1  6
  3  2  1  0
  4  2  1  0
  5  4  1  0
  6  5  1  0
  7  6  1  0
  8  7  1  0
  9  8  1  0
 10  9  1  0
 10 11  1  1
 12 10  1  0
 13 12  1  0
 13  7  1  0
 13 14  1  6
 15  9  1  0
 16 15  1  0
 17  8  1  0
 17 16  1  0
M  END
$$$$
Mac1-UCSF-P0115_1A
     RDKit          3D

 17 18  0  0  0  0  0  0  0  0999 V2000
   27.5020   46.6820   -2.2560 C   0  0  0  0  0  0  0  0  0  0  0  0
   28.3720   45.4870   -2.7530 C   0  0  1  0  0  0  0  0  0  0  0  0
   27.5940   44.2880   -3.2410 C   0  0  0  0  0  0  0  0  0  0  0  0
   29.2620   45.8930   -3.7750 O   0  0  0  0  0  0  0  0  0  0  0  0
   29.7930   44.9680   -4.6670 C   0  0  0  0  0  0  0  0  0  0  0  0
   30.5760   45.7900   -5.6420 C   0  0  0  0  0  0  0  0  0  0  0  0
   29.7600   46.5480   -6.6280 N   0  0  0  0  0  0  0  0  0  0  0  0
   29.3820   47.9660   -6.4720 C   0  0  0  0  0  0  0  0  0  0  0  0
   28.7810   48.6930   -7.4560 C   0  0  0  0  0  0  0  0  0  0  0  0
   28.4850   48.0080   -8.7650 C   0  0  0  0  0  0  0  0  0  0  0  0
   27.9970   48.5590   -9.6350 O   0  0  0  0  0  0  0  0  0  0  0  0
   28.7790   46.6490   -8.9010 N   0  0  0  0  0  0  0  0  0  0  0  0
   29.4180   45.9120   -7.8720 C   0  0  0  0  0  0  0  0  0  0  0  0
   29.7510   44.3770   -8.1500 S   0  0  0  0  0  0  0  0  0  0  0  0
   28.6270   49.9520   -7.0140 N   0  0  0  0  0  0  0  0  0  0  0  0
   29.0680   50.0660   -5.7830 C   0  0  0  0  0  0  0  0  0  0  0  0
   29.5560   48.8360   -5.4150 C   0  0  0  0  0  0  0  0  0  0  0  0
  2  1  1  6
  3  2  1  0
  4  2  1  0
  5  4  1  0
  6  5  1  0
  7  6  1  0
  8  7  1  0
  9  8  1  0
 10  9  1  0
 11 10  1  0
 12 10  1  0
 13 12  1  0
 13  7  1  0
 14 13  1  0
 15  9  1  0
 16 15  1  0
 17  8  1  0
 17 16  1  0
M  END
$$$$
Mac1-UCSF-P0116_0A
     RDKit          3D

 16 18  0  0  0  0  0  0  0  0999 V2000
   31.4730   54.8330   -9.5030 C   0  0  0  0  0  0  0  0  0  0  0  0
   31.9530   54.0920   -8.4580 C   0  0  0  0  0  0  0  0  0  0  0  0
   30.9100   53.5920   -7.7930 O   0  0  0  0  0  0  0  0  0  0  0  0
   29.7650   53.9590   -8.3970 C   0  0  0  0  0  0  0  0  0  0  0  0
   28.3590   53.5680   -7.9410 C   0  0  0  0  0  0  0  0  0  0  0  0
   28.0380   52.2280   -8.3930 N   0  0  0  0  0  0  0  0  0  0  0  0
   28.5370   51.0960   -7.6270 C   0  0  0  0  0  0  0  0  0  0  0  0
   28.9310   51.2320   -6.3970 N   0  0  0  0  0  0  0  0  0  0  0  0
   29.3860   50.2260   -5.7010 C   0  0  0  0  0  0  0  0  0  0  0  0
   29.4450   49.0010   -6.1760 N   0  0  0  0  0  0  0  0  0  0  0  0
   29.0360   48.7940   -7.4200 C   0  0  0  0  0  0  0  0  0  0  0  0
   28.9540   47.7030   -8.1670 N   0  0  0  0  0  0  0  0  0  0  0  0
   28.4580   48.0700   -9.3290 C   0  0  0  0  0  0  0  0  0  0  0  0
   28.2130   49.3450   -9.3710 N   0  0  0  0  0  0  0  0  0  0  0  0
   28.5500   49.8290   -8.1720 C   0  0  0  0  0  0  0  0  0  0  0  0
   30.0860   54.7520   -9.4680 C   0  0  0  0  0  0  0  0  0  0  0  0
  2  1  1  0
  3  2  1  0
  4  3  1  0
  5  4  1  0
  6  5  1  0
  7  6  1  0
  8  7  1  0
  9  8  1  0
 10  9  1  0
 11 10  1  0
 12 11  1  0
 13 12  1  0
 14 13  1  0
 15 11  1  0
 15 14  1  0
 15  7  1  0
 16  4  1  0
 16  1  1  0
M  END
$$$$
Mac1-UCSF-P0123_0A
     RDKit          3D

 13 15  0  0  0  0  0  0  0  0999 V2000
   28.0620   51.6000   -8.8420 N   0  0  0  0  0  0  0  0  0  0  0  0
   28.6460   52.1630   -7.6380 C   0  0  0  0  0  0  0  0  0  0  0  0
   28.7230   53.5040   -7.4860 C   0  0  0  0  0  0  0  0  0  0  0  0
   28.2750   54.6380   -8.4180 C   0  0  0  0  0  0  0  0  0  0  0  0
   29.0090   55.8150   -7.8990 C   0  0  0  0  0  0  0  0  0  0  0  0
   29.1800   55.5110   -6.4520 C   0  0  0  0  0  0  0  0  0  0  0  0
   29.2640   54.0300   -6.3470 C   0  0  0  0  0  0  0  0  0  0  0  0
   29.7490   53.2750   -5.3730 N   0  0  0  0  0  0  0  0  0  0  0  0
   29.6960   51.9160   -5.5600 C   0  0  1  0  0  0  0  0  0  0  0  0
   30.0740   50.8930   -4.7660 N   0  0  0  0  0  0  0  0  0  0  0  0
   29.7820   49.7450   -5.4240 C   0  0  0  0  0  0  0  0  0  0  0  0
   29.2130   50.0350   -6.5830 N   0  0  0  0  0  0  0  0  0  0  0  0
   29.1200   51.3920   -6.6500 N   0  0  0  0  0  0  0  0  0  0  0  0
  2  1  1  0
  3  2  1  0
  4  3  1  0
  5  4  1  0
  6  5  1  0
  7  3  1  0
  7  6  1  0
  8  7  1  0
  9  8  1  1
 10  9  1  0
 11 10  1  0
 12 11  1  0
 13 12  1  0
 13  9  1  0
 13  2  1  0
M  END
$$$$
Mac1-UCSF-P0124_0A
     RDKit          3D

 11 12  0  0  0  0  0  0  0  0999 V2000
   28.8250   55.5670   -6.8100 C   0  0  0  0  0  0  0  0  0  0  0  0
   28.6840   54.1870   -7.1940 N   0  0  0  0  0  0  0  0  0  0  0  0
   28.2140   53.8370   -8.3700 C   0  0  0  0  0  0  0  0  0  0  0  0
   28.1620   52.4340   -8.3910 C   0  0  0  0  0  0  0  0  0  0  0  0
   28.6300   51.9710   -7.1360 C   0  0  1  0  0  0  0  0  0  0  0  0
   28.8600   50.6960   -6.5290 C   0  0  0  0  0  0  0  0  0  0  0  0
   28.6310   49.4790   -7.2610 N   0  0  0  0  0  0  0  0  0  0  0  0
   29.3270   50.6690   -5.3130 N   0  0  0  0  0  0  0  0  0  0  0  0
   29.5700   51.8250   -4.6750 C   0  0  0  0  0  0  0  0  0  0  0  0
   29.3840   53.0290   -5.1870 N   0  0  0  0  0  0  0  0  0  0  0  0
   28.9690   53.1170   -6.4620 C   0  0  2  0  0  0  0  0  0  0  0  0
  2  1  1  0
  3  2  1  0
  4  3  1  0
  5  4  1  6
  6  5  1  0
  7  6  1  0
  8  6  1  0
  9  8  1  0
 10  9  1  0
 11  5  1  0
 11  2  1  0
 11 10  1  1
M  END
$$$$
Mac1-UCSF-P0124_1A
     RDKit          3D

 11 12  0  0  0  0  0  0  0  0999 V2000
   29.6560   46.4100   -5.9050 C   0  0  0  0  0  0  0  0  0  0  0  0
   29.3900   47.7780   -6.0870 N   0  0  0  0  0  0  0  0  0  0  0  0
   29.5530   48.8360   -5.2960 C   0  0  0  0  0  0  0  0  0  0  0  0
   29.1120   49.9760   -5.9840 C   0  0  0  0  0  0  0  0  0  0  0  0
   28.6740   49.5080   -7.2500 C   0  0  0  0  0  0  0  0  0  0  0  0
   28.1030   50.0460   -8.4410 C   0  0  0  0  0  0  0  0  0  0  0  0
   27.8560   51.4900   -8.5610 N   0  0  0  0  0  0  0  0  0  0  0  0
   27.7970   49.2420   -9.4720 N   0  0  0  0  0  0  0  0  0  0  0  0
   28.0090   47.9360   -9.3660 C   0  0  0  0  0  0  0  0  0  0  0  0
   28.5200   47.3640   -8.3070 N   0  0  0  0  0  0  0  0  0  0  0  0
   28.8680   48.1500   -7.2440 C   0  0  0  0  0  0  0  0  0  0  0  0
  2  1  1  0
  3  2  1  0
  4  3  1  0
  5  4  1  0
  6  5  1  0
  7  6  1  0
  8  6  1  0
  9  8  1  0
 10  9  1  0
 11 10  1  0
 11  2  1  0
 11  5  1  0
M  END
$$$$
Mac1-UCSF-P0131_0A
     RDKit          3D

 18 20  0  0  0  0  0  0  0  0999 V2000
   30.3150   49.3020   -3.6800 C   0  0  0  0  0  0  0  0  0  0  0  0
   29.7140   49.2220   -5.0660 C   0  0  0  0  0  0  0  0  0  0  0  0
   29.2050   50.2680   -5.8090 C   0  0  2  0  0  0  0  0  0  0  0  0
   29.0990   51.7020   -5.3310 C   0  0  0  0  0  0  0  0  0  0  0  0
   28.7700   49.6960   -7.0350 C   0  0  0  0  0  0  0  0  0  0  0  0
   28.1530   50.0920   -8.2560 C   0  0  0  0  0  0  0  0  0  0  0  0
   27.7860   51.4590   -8.4410 N   0  0  0  0  0  0  0  0  0  0  0  0
   27.9180   49.1890   -9.1900 N   0  0  0  0  0  0  0  0  0  0  0  0
   28.2340   47.9260   -8.9880 C   0  0  0  0  0  0  0  0  0  0  0  0
   28.8350   47.5190   -7.9170 N   0  0  0  0  0  0  0  0  0  0  0  0
   29.0940   48.3800   -6.9450 C   0  0  0  0  0  0  0  0  0  0  0  0
   29.6370   48.1160   -5.7740 N   0  0  0  0  0  0  0  0  0  0  0  0
   30.0730   46.7900   -5.4210 C   0  0  0  0  0  0  0  0  0  0  0  0
   31.4890   46.5900   -5.9300 C   0  0  0  0  0  0  0  0  0  0  0  0
   32.0770   45.5220   -6.5890 C   0  0  0  0  0  0  0  0  0  0  0  0
   33.4010   45.8920   -6.7880 C   0  0  0  0  0  0  0  0  0  0  0  0
   33.5790   47.1600   -6.2400 C   0  0  0  0  0  0  0  0  0  0  0  0
   32.3840   47.5300   -5.7190 O   0  0  0  0  0  0  0  0  0  0  0  0
  2  1  1  0
  3  2  1  0
  3  4  1  1
  5  3  1  0
  6  5  1  0
  7  6  1  0
  8  6  1  0
  9  8  1  0
 10  9  1  0
 11 10  1  0
 11  5  1  0
 12 11  1  0
 12  2  1  0
 13 12  1  0
 14 13  1  0
 15 14  1  0
 16 15  1  0
 17 16  1  0
 18 14  1  0
 18 17  1  0
M  END
$$$$
Mac1-UCSF-P0132_0A
     RDKit          3D

 11 12  0  0  0  0  0  0  0  0999 V2000
   27.9270   52.1920   -8.8810 N   0  0  0  0  0  0  0  0  0  0  0  0
   28.4020   52.8980   -7.7380 C   0  0  0  0  0  0  0  0  0  0  0  0
   28.5030   54.2080   -7.6680 N   0  0  0  0  0  0  0  0  0  0  0  0
   29.0100   54.6760   -6.5440 C   0  0  0  0  0  0  0  0  0  0  0  0
   29.4210   53.9330   -5.5460 N   0  0  0  0  0  0  0  0  0  0  0  0
   29.3020   52.5980   -5.5980 C   0  0  0  0  0  0  0  0  0  0  0  0
   29.7260   51.7330   -4.5300 C   0  0  0  0  0  0  0  0  0  0  0  0
   29.7000   50.3700   -4.6210 C   0  0  0  0  0  0  0  0  0  0  0  0
   29.2080   49.8070   -5.7990 C   0  0  0  0  0  0  0  0  0  0  0  0
   28.7760   50.5880   -6.8140 C   0  0  0  0  0  0  0  0  0  0  0  0
   28.8060   52.0240   -6.7090 C   0  0  2  0  0  0  0  0  0  0  0  0
  2  1  1  0
  3  2  1  0
  4  3  1  0
  5  4  1  0
  6  5  1  0
  7  6  1  0
  8  7  1  0
  9  8  1  0
 10  9  1  0
 11 10  1  6
 11  6  1  0
 11  2  1  0
M  END
$$$$
Mac1-UCSF-P0137_0A
     RDKit          3D

 16 18  0  0  0  0  0  0  0  0999 V2000
   31.8700   47.5870   -4.8780 C   0  0  2  0  0  0  0  0  0  0  0  0
   32.8630   46.8050   -5.5790 C   0  0  0  0  0  0  0  0  0  0  0  0
   32.4850   46.3710   -6.8860 C   0  0  0  0  0  0  0  0  0  0  0  0
   31.0080   46.1380   -6.8990 C   0  0  0  0  0  0  0  0  0  0  0  0
   30.1760   47.3520   -6.5440 N   0  0  0  0  0  0  0  0  0  0  0  0
   30.3650   47.4930   -5.1170 C   0  0  0  0  0  0  0  0  0  0  0  0
   29.3320   48.0600   -7.4310 C   0  0  0  0  0  0  0  0  0  0  0  0
   28.9850   47.4060   -8.5190 N   0  0  0  0  0  0  0  0  0  0  0  0
   28.3350   47.9610   -9.4470 C   0  0  0  0  0  0  0  0  0  0  0  0
   27.8710   49.1230   -9.3660 N   0  0  0  0  0  0  0  0  0  0  0  0
   28.1610   49.8520   -8.3200 C   0  0  1  0  0  0  0  0  0  0  0  0
   27.8060   51.0710   -8.0080 N   0  0  0  0  0  0  0  0  0  0  0  0
   28.2210   51.3690   -6.7810 C   0  0  0  0  0  0  0  0  0  0  0  0
   28.9110   50.3420   -6.3100 C   0  0  0  0  0  0  0  0  0  0  0  0
   28.8500   49.3540   -7.2780 C   0  0  0  0  0  0  0  0  0  0  0  0
   31.9770   48.8200   -5.2140 F   0  0  0  0  0  0  0  0  0  0  0  0
  2  1  1  0
  3  2  1  0
  4  3  1  0
  5  4  1  0
  6  5  1  0
  6  1  1  0
  7  5  1  0
  8  7  1  0
  9  8  1  0
 10  9  1  0
 11 10  1  1
 12 11  1  0
 13 12  1  0
 14 13  1  0
 15  7  1  0
 15 14  1  0
 15 11  1  0
  1 16  1  6
M  END
$$$$
Mac1-UCSF-P0138_0A
     RDKit          3D

 12 13  0  0  0  0  0  0  0  0999 V2000
   29.8300   47.2730   -5.3330 C   0  0  0  0  0  0  0  0  0  0  0  0
   29.4350   48.5900   -5.8100 N   0  0  0  0  0  0  0  0  0  0  0  0
   29.4750   49.7080   -5.1140 C   0  0  0  0  0  0  0  0  0  0  0  0
   29.0470   50.6710   -5.8390 N   0  0  0  0  0  0  0  0  0  0  0  0
   28.7560   50.1560   -7.0610 C   0  0  0  0  0  0  0  0  0  0  0  0
   28.2890   50.6770   -8.2790 C   0  0  0  0  0  0  0  0  0  0  0  0
   27.9590   52.0800   -8.4940 N   0  0  0  0  0  0  0  0  0  0  0  0
   28.1560   49.8630   -9.2880 N   0  0  0  0  0  0  0  0  0  0  0  0
   28.4250   48.5840   -9.1820 C   0  0  0  0  0  0  0  0  0  0  0  0
   28.2030   47.7760  -10.3340 N   0  0  0  0  0  0  0  0  0  0  0  0
   28.8600   48.0370   -8.1070 N   0  0  0  0  0  0  0  0  0  0  0  0
   29.0220   48.8450   -7.0260 C   0  0  0  0  0  0  0  0  0  0  0  0
  2  1  1  0
  3  2  1  0
  4  3  1  0
  5  4  1  0
  6  5  1  0
  7  6  1  0
  8  6  1  0
  9  8  1  0
 10  9  1  0
 11  9  1  0
 12 11  1  0
 12  2  1  0
 12  5  1  0
M  END
$$$$
Mac1-UCSF-P0139_0A
     RDKit          3D

 16 17  0  0  0  0  0  0  0  0999 V2000
   29.7670   48.3160   -5.0080 C   0  0  0  0  0  0  0  0  0  0  0  0
   29.3260   47.5500   -6.1590 N   0  0  0  0  0  0  0  0  0  0  0  0
   29.3440   46.1680   -6.1810 C   0  0  0  0  0  0  0  0  0  0  0  0
   30.7380   45.9130   -6.7080 C   0  0  0  0  0  0  0  0  0  0  0  0
   31.4750   45.0320   -5.7590 C   0  0  0  0  0  0  0  0  0  0  0  0
   31.1900   43.8740   -5.6260 O   0  0  0  0  0  0  0  0  0  0  0  0
   32.3260   45.6020   -5.1380 O   0  0  0  0  0  0  0  0  0  0  0  0
   28.8050   48.1410   -7.2930 C   0  0  0  0  0  0  0  0  0  0  0  0
   28.4620   47.3730   -8.2910 N   0  0  0  0  0  0  0  0  0  0  0  0
   27.9520   47.8520   -9.3700 C   0  0  0  0  0  0  0  0  0  0  0  0
   27.7460   49.0940   -9.5030 N   0  0  0  0  0  0  0  0  0  0  0  0
   28.0490   49.9480   -8.5290 C   0  0  0  0  0  0  0  0  0  0  0  0
   27.9210   51.2270   -8.4470 N   0  0  0  0  0  0  0  0  0  0  0  0
   28.3600   51.6110   -7.2450 C   0  0  0  0  0  0  0  0  0  0  0  0
   28.8070   50.5760   -6.5040 C   0  0  0  0  0  0  0  0  0  0  0  0
   28.6030   49.4920   -7.3590 C   0  0  0  0  0  0  0  0  0  0  0  0
  2  1  1  0
  3  2  1  0
  4  3  1  0
  5  4  1  0
  6  5  1  0
  7  5  1  0
  8  2  1  0
  9  8  1  0
 10  9  1  0
 11 10  1  0
 12 11  1  0
 13 12  1  0
 14 13  1  0
 15 14  1  0
 16  8  1  0
 16 15  1  0
 16 12  1  0
M  CHG  1   7  -1
M  END
$$$$
Mac1-UCSF-P0139_1A
     RDKit          3D

 16 17  0  0  0  0  0  0  0  0999 V2000
   29.7520   48.3070   -5.0070 C   0  0  0  0  0  0  0  0  0  0  0  0
   29.3780   47.5290   -6.1750 N   0  0  0  0  0  0  0  0  0  0  0  0
   29.6000   46.1500   -6.2400 C   0  0  0  0  0  0  0  0  0  0  0  0
   31.1570   45.8540   -6.1890 C   0  0  0  0  0  0  0  0  0  0  0  0
   31.8600   45.8090   -7.5560 C   0  0  0  0  0  0  0  0  0  0  0  0
   31.1400   45.6020   -8.4660 O   0  0  0  0  0  0  0  0  0  0  0  0
   33.0620   45.9110   -7.8030 O   0  0  0  0  0  0  0  0  0  0  0  0
   28.8150   48.1310   -7.2850 C   0  0  0  0  0  0  0  0  0  0  0  0
   28.4730   47.3640   -8.2690 N   0  0  0  0  0  0  0  0  0  0  0  0
   27.9560   47.8390   -9.3550 C   0  0  0  0  0  0  0  0  0  0  0  0
   27.7420   49.0810   -9.4950 N   0  0  0  0  0  0  0  0  0  0  0  0
   28.0480   49.9390   -8.5260 C   0  0  0  0  0  0  0  0  0  0  0  0
   27.9160   51.2200   -8.4440 N   0  0  0  0  0  0  0  0  0  0  0  0
   28.3610   51.6050   -7.2460 C   0  0  0  0  0  0  0  0  0  0  0  0
   28.8180   50.5740   -6.5080 C   0  0  0  0  0  0  0  0  0  0  0  0
   28.6120   49.4850   -7.3570 C   0  0  0  0  0  0  0  0  0  0  0  0
  2  1  1  0
  3  2  1  0
  4  3  1  0
  5  4  1  0
  6  5  1  0
  7  5  1  0
  8  2  1  0
  9  8  1  0
 10  9  1  0
 11 10  1  0
 12 11  1  0
 13 12  1  0
 14 13  1  0
 15 14  1  0
 16  8  1  0
 16 15  1  0
 16 12  1  0
M  CHG  1   7  -1
M  END
$$$$
Mac1-UCSF-P0142_0A
     RDKit          3D

 17 20  0  0  0  0  0  0  0  0999 V2000
   31.6220   43.8220   -6.2650 C   0  0  0  0  0  0  0  0  0  0  0  0
   31.7960   44.8560   -7.3560 C   0  0  0  0  0  0  0  0  0  0  0  0
   31.3110   45.3030   -5.9490 C   0  0  2  0  0  0  0  0  0  0  0  0
   32.2300   45.9750   -5.0110 C   0  0  0  0  0  0  0  0  0  0  0  0
   32.1220   47.4210   -4.8190 C   0  0  0  0  0  0  0  0  0  0  0  0
   30.7490   48.0710   -5.1420 C   0  0  0  0  0  0  0  0  0  0  0  0
   29.7430   47.2570   -5.9870 N   0  0  0  0  0  0  0  0  0  0  0  0
   29.8630   45.7720   -5.7800 C   0  0  0  0  0  0  0  0  0  0  0  0
   29.0850   47.8010   -7.1740 C   0  0  0  0  0  0  0  0  0  0  0  0
   28.7400   47.1040   -8.2550 N   0  0  0  0  0  0  0  0  0  0  0  0
   28.1670   47.6860   -9.3010 C   0  0  0  0  0  0  0  0  0  0  0  0
   27.8840   48.9740   -9.3070 N   0  0  0  0  0  0  0  0  0  0  0  0
   28.1800   49.7390   -8.2330 C   0  0  0  0  0  0  0  0  0  0  0  0
   28.0110   51.0560   -7.9140 N   0  0  0  0  0  0  0  0  0  0  0  0
   28.4780   51.3330   -6.6990 C   0  0  0  0  0  0  0  0  0  0  0  0
   28.9830   50.1720   -6.1830 C   0  0  0  0  0  0  0  0  0  0  0  0
   28.7850   49.1830   -7.1580 C   0  0  0  0  0  0  0  0  0  0  0  0
  2  1  1  0
  3  2  1  6
  3  1  1  0
  4  3  1  0
  5  4  1  0
  6  5  1  0
  7  6  1  0
  8  7  1  0
  8  3  1  0
  9  7  1  0
 10  9  1  0
 11 10  1  0
 12 11  1  0
 13 12  1  0
 14 13  1  0
 15 14  1  0
 16 15  1  0
 17  9  1  0
 17 16  1  0
 17 13  1  0
M  END
$$$$
Mac1-UCSF-P0148_0A
     RDKit          3D

 18 21  0  0  0  0  0  0  0  0999 V2000
   32.2970   47.9200   -3.7930 C   0  0  0  0  0  0  0  0  0  0  0  0
   31.0420   48.3870   -3.1330 O   0  0  0  0  0  0  0  0  0  0  0  0
   30.1770   48.5440   -4.4880 C   0  0  0  0  0  0  0  0  0  0  0  0
   30.2530   47.4060   -4.9320 C   0  0  2  0  0  0  0  0  0  0  0  0
   31.7890   46.8700   -4.4370 C   0  0  1  0  0  0  0  0  0  0  0  0
   32.6670   46.2660   -5.4960 C   0  0  0  0  0  0  0  0  0  0  0  0
   32.5690   47.2140   -6.5160 C   0  0  0  0  0  0  0  0  0  0  0  0
   31.1390   46.6870   -7.2050 C   0  0  0  0  0  0  0  0  0  0  0  0
   29.9010   47.2480   -6.4410 N   0  0  0  0  0  0  0  0  0  0  0  0
   29.1640   47.9750   -7.4240 C   0  0  2  0  0  0  0  0  0  0  0  0
   28.8220   47.2750   -8.4910 N   0  0  0  0  0  0  0  0  0  0  0  0
   28.2520   47.8340   -9.4990 C   0  0  0  0  0  0  0  0  0  0  0  0
   27.9060   49.0570   -9.4960 N   0  0  0  0  0  0  0  0  0  0  0  0
   28.2220   49.8280   -8.4720 C   0  0  0  0  0  0  0  0  0  0  0  0
   28.0300   51.1220   -8.2960 N   0  0  0  0  0  0  0  0  0  0  0  0
   28.4630   51.4900   -7.1160 C   0  0  0  0  0  0  0  0  0  0  0  0
   29.0000   50.4410   -6.5040 C   0  0  0  0  0  0  0  0  0  0  0  0
   28.8980   49.3480   -7.3910 C   0  0  1  0  0  0  0  0  0  0  0  0
  2  1  1  0
  3  2  1  0
  4  3  1  6
  5  4  1  0
  5  1  1  6
  6  5  1  0
  7  6  1  0
  8  7  1  0
  9  8  1  0
  9  4  1  0
 10  9  1  6
 11 10  1  0
 12 11  1  0
 13 12  1  0
 14 13  1  0
 15 14  1  0
 16 15  1  0
 17 16  1  0
 18 10  1  0
 18 17  1  1
 18 14  1  0
M  END
$$$$
Mac1-UCSF-P0159_0A
     RDKit          3D

 17 19  0  0  0  0  0  0  0  0999 V2000
   27.8390   51.5900   -7.7460 N   0  0  0  0  0  0  0  0  0  0  0  0
   28.4460   50.4030   -7.2300 C   0  0  0  0  0  0  0  0  0  0  0  0
   28.4220   49.2340   -8.0070 C   0  0  0  0  0  0  0  0  0  0  0  0
   27.9100   48.9220   -9.2050 N   0  0  0  0  0  0  0  0  0  0  0  0
   28.2660   47.6980   -9.4090 C   0  0  0  0  0  0  0  0  0  0  0  0
   28.8510   47.1330   -8.3810 N   0  0  0  0  0  0  0  0  0  0  0  0
   28.9950   48.1180   -7.5000 C   0  0  2  0  0  0  0  0  0  0  0  0
   29.5070   48.1400   -6.3020 N   0  0  0  0  0  0  0  0  0  0  0  0
   30.1640   47.0160   -5.7030 C   0  0  0  0  0  0  0  0  0  0  0  0
   29.2940   46.1770   -4.8080 C   0  0  1  0  0  0  0  0  0  0  0  0
   28.7690   44.9560   -5.0960 C   0  0  0  0  0  0  0  0  0  0  0  0
   27.8580   44.4010   -3.7920 S   0  0  0  0  0  0  0  0  0  0  0  0
   28.2290   45.6950   -2.8880 C   0  0  0  0  0  0  0  0  0  0  0  0
   27.7960   45.8610   -1.4580 C   0  0  0  0  0  0  0  0  0  0  0  0
   28.9880   46.5730   -3.5140 N   0  0  0  0  0  0  0  0  0  0  0  0
   29.4770   49.2880   -5.5890 C   0  0  0  0  0  0  0  0  0  0  0  0
   28.9890   50.3630   -6.0840 N   0  0  0  0  0  0  0  0  0  0  0  0
  2  1  1  0
  3  2  1  0
  4  3  1  0
  5  4  1  0
  6  5  1  0
  7  6  1  1
  7  3  1  0
  8  7  1  0
  9  8  1  0
 10  9  1  1
 11 10  1  0
 12 11  1  0
 13 12  1  0
 14 13  1  0
 15 13  1  0
 15 10  1  0
 16  8  1  0
 17 16  1  0
 17  2  1  0
M  END
$$$$
Mac1-UCSF-P0161_0A
     RDKit          3D

 18 20  0  0  0  0  0  0  0  0999 V2000
   27.7830   51.8010   -7.8820 N   0  0  0  0  0  0  0  0  0  0  0  0
   28.3330   50.5830   -7.3600 C   0  0  2  0  0  0  0  0  0  0  0  0
   28.2910   49.4210   -8.1240 C   0  0  0  0  0  0  0  0  0  0  0  0
   27.8430   49.1170   -9.3810 N   0  0  0  0  0  0  0  0  0  0  0  0
   28.2010   47.8740   -9.5350 C   0  0  0  0  0  0  0  0  0  0  0  0
   28.7370   47.3480   -8.4300 N   0  0  0  0  0  0  0  0  0  0  0  0
   28.7590   48.3110   -7.5600 C   0  0  0  0  0  0  0  0  0  0  0  0
   29.1990   48.3070   -6.3190 N   0  0  0  0  0  0  0  0  0  0  0  0
   29.7090   47.1420   -5.6420 C   0  0  0  0  0  0  0  0  0  0  0  0
   31.1440   46.8890   -6.0470 C   0  0  2  0  0  0  0  0  0  0  0  0
   32.2770   47.0940   -5.3670 C   0  0  0  0  0  0  0  0  0  0  0  0
   33.3430   46.7860   -6.1970 C   0  0  0  0  0  0  0  0  0  0  0  0
   34.7220   46.7880   -5.9700 O   0  0  0  0  0  0  0  0  0  0  0  0
   35.1280   47.3870   -4.8080 C   0  0  0  0  0  0  0  0  0  0  0  0
   32.7970   46.4270   -7.3340 N   0  0  0  0  0  0  0  0  0  0  0  0
   31.5410   46.6360   -7.2040 O   0  0  0  0  0  0  0  0  0  0  0  0
   29.2010   49.4390   -5.6570 C   0  0  0  0  0  0  0  0  0  0  0  0
   28.7120   50.5750   -6.1360 N   0  0  0  0  0  0  0  0  0  0  0  0
  2  1  1  1
  3  2  1  0
  4  3  1  0
  5  4  1  0
  6  5  1  0
  7  6  1  0
  7  3  1  0
  8  7  1  0
  9  8  1  0
 10  9  1  6
 11 10  1  0
 12 11  1  0
 13 12  1  0
 14 13  1  0
 15 12  1  0
 16 10  1  0
 16 15  1  0
 17  8  1  0
 18 17  1  0
 18  2  1  0
M  END
$$$$
Mac1-UCSF-P0163_0A
     RDKit          3D

 16 18  0  0  0  0  0  0  0  0999 V2000
   29.1100   50.4340   -5.8110 Cl  0  0  0  0  0  0  0  0  0  0  0  0
   27.7180   51.3150   -8.2650 N   0  0  0  0  0  0  0  0  0  0  0  0
   28.1810   50.0080   -8.3360 C   0  0  0  0  0  0  0  0  0  0  0  0
   27.8970   49.2860   -9.3860 N   0  0  0  0  0  0  0  0  0  0  0  0
   28.3440   48.0830   -9.4530 C   0  0  0  0  0  0  0  0  0  0  0  0
   28.9700   47.5390   -8.5140 N   0  0  0  0  0  0  0  0  0  0  0  0
   29.3040   48.1990   -7.4090 C   0  0  0  0  0  0  0  0  0  0  0  0
   30.0720   47.5010   -6.4150 N   0  0  0  0  0  0  0  0  0  0  0  0
   30.7120   46.3060   -6.8940 C   0  0  0  0  0  0  0  0  0  0  0  0
   31.9900   45.9820   -6.1620 C   0  0  1  0  0  0  0  0  0  0  0  0
   32.8220   47.2120   -6.3430 C   0  0  0  0  0  0  0  0  0  0  0  0
   32.2350   48.1980   -5.3570 C   0  0  0  0  0  0  0  0  0  0  0  0
   30.7220   48.1080   -5.2580 C   0  0  2  0  0  0  0  0  0  0  0  0
   30.3030   46.9000   -4.3980 C   0  0  0  0  0  0  0  0  0  0  0  0
   31.3250   45.8040   -4.7520 C   0  0  0  0  0  0  0  0  0  0  0  0
   28.8670   49.4820   -7.2900 C   0  0  2  0  0  0  0  0  0  0  0  0
  3  2  1  0
  4  3  1  0
  5  4  1  0
  6  5  1  0
  7  6  1  0
  8  7  1  0
  9  8  1  0
 10  9  1  6
 11 10  1  0
 12 11  1  0
 13  8  1  0
 13 12  1  6
 14 13  1  0
 15 10  1  0
 15 14  1  0
 16  7  1  0
 16  3  1  0
 16  1  1  1
M  END
$$$$
Mac1-UCSF-P0178_0A
     RDKit          3D

 13 13  0  0  0  0  0  0  0  0999 V2000
   28.3850   45.3260   -1.6780 N   0  0  0  0  0  0  0  0  0  0  0  0
   28.8610   46.7950   -2.2660 S   0  0  2  0  0  0  0  0  0  0  0  0
   29.6460   47.3950   -1.2930 O   0  0  0  0  0  0  0  0  0  0  0  0
   27.6840   47.5790   -2.5310 O   0  0  0  0  0  0  0  0  0  0  0  0
   29.6760   46.5800   -3.8260 C   0  0  2  0  0  0  0  0  0  0  0  0
   30.8430   47.2230   -4.0330 C   0  0  0  0  0  0  0  0  0  0  0  0
   31.4810   47.1240   -5.2340 C   0  0  0  0  0  0  0  0  0  0  0  0
   30.8880   46.3480   -6.2100 C   0  0  0  0  0  0  0  0  0  0  0  0
   29.6910   45.6660   -5.9850 C   0  0  0  0  0  0  0  0  0  0  0  0
   29.0510   45.8150   -4.7700 C   0  0  0  0  0  0  0  0  0  0  0  0
   31.5140   46.2140   -7.5490 C   0  0  0  0  0  0  0  0  0  0  0  0
   30.8160   45.8730   -8.5360 O   0  0  0  0  0  0  0  0  0  0  0  0
   32.6910   46.4820   -7.6180 O   0  0  0  0  0  0  0  0  0  0  0  0
  2  1  1  1
  3  2  1  0
  4  2  1  0
  5  2  1  0
  5  6  1  6
  7  6  1  0
  8  7  1  0
  9  8  1  0
 10  9  1  0
 10  5  1  0
 11  8  1  0
 12 11  1  0
 13 11  1  0
M  CHG  1  13  -1
M  END
$$$$
Mac1-UCSF-P0179_0A
     RDKit          3D

 15 16  0  0  0  0  0  0  0  0999 V2000
   31.2200   45.5420   -8.0550 O   0  0  0  0  0  0  0  0  0  0  0  0
   32.2550   45.6090   -7.4090 C   0  0  2  0  0  0  0  0  0  0  0  0
   33.3840   45.7070   -7.9650 O   0  0  0  0  0  0  0  0  0  0  0  0
   32.1350   45.3780   -5.9040 C   0  0  0  0  0  0  0  0  0  0  0  0
   33.4200   45.6000   -5.3320 N   0  0  0  0  0  0  0  0  0  0  0  0
   34.2550   44.6560   -4.8020 C   0  0  1  0  0  0  0  0  0  0  0  0
   34.0160   43.5290   -4.6990 O   0  0  0  0  0  0  0  0  0  0  0  0
   35.6050   45.3070   -4.4350 C   0  0  2  0  0  0  0  0  0  0  0  0
   36.6970   44.9000   -3.8680 C   0  0  0  0  0  0  0  0  0  0  0  0
   37.7890   45.7870   -3.6710 C   0  0  0  0  0  0  0  0  0  0  0  0
   37.6970   47.1140   -4.0780 C   0  0  0  0  0  0  0  0  0  0  0  0
   36.4830   47.5970   -4.6110 C   0  0  0  0  0  0  0  0  0  0  0  0
   35.4510   46.6970   -4.8130 C   0  0  0  0  0  0  0  0  0  0  0  0
   34.0360   46.7760   -5.3680 C   0  0  0  0  0  0  0  0  0  0  0  0
   33.5450   47.6910   -5.7870 O   0  0  0  0  0  0  0  0  0  0  0  0
  2  1  1  6
  3  2  1  0
  4  2  1  0
  5  4  1  0
  6  5  1  0
  6  7  1  6
  8  6  1  0
  8  9  1  1
 10  9  1  0
 11 10  1  0
 12 11  1  0
 13 12  1  0
 13  8  1  0
 14 13  1  0
 14  5  1  0
 15 14  1  0
M  CHG  1   1  -1
M  END
$$$$
Mac1-UCSF-P0180_0A
     RDKit          3D

 13 13  0  0  0  0  0  0  0  0999 V2000
   28.8820   55.3440   -6.7690 C   0  0  0  0  0  0  0  0  0  0  0  0
   29.0200   53.9180   -6.3550 C   0  0  0  0  0  0  0  0  0  0  0  0
   29.3850   53.7140   -5.3040 O   0  0  0  0  0  0  0  0  0  0  0  0
   28.6500   52.8360   -7.2180 N   0  0  0  0  0  0  0  0  0  0  0  0
   28.8090   51.4220   -6.8400 C   0  0  0  0  0  0  0  0  0  0  0  0
   29.3270   51.0560   -5.6350 C   0  0  0  0  0  0  0  0  0  0  0  0
   29.5400   49.7430   -5.2840 C   0  0  0  0  0  0  0  0  0  0  0  0
   29.1940   48.7410   -6.1830 C   0  0  0  0  0  0  0  0  0  0  0  0
   28.6690   49.0910   -7.4030 C   0  0  0  0  0  0  0  0  0  0  0  0
   28.4820   50.4200   -7.7380 C   0  0  0  0  0  0  0  0  0  0  0  0
   29.4350   47.2900   -5.8460 C   0  0  2  0  0  0  0  0  0  0  0  0
   29.9670   46.9840   -4.7620 O   0  0  0  0  0  0  0  0  0  0  0  0
   29.1440   46.4380   -6.7020 O   0  0  0  0  0  0  0  0  0  0  0  0
  2  1  1  0
  3  2  1  0
  4  2  1  0
  5  4  1  0
  6  5  1  0
  7  6  1  0
  8  7  1  0
  9  8  1  0
 10  9  1  0
 10  5  1  0
 11  8  1  0
 11 12  1  6
 13 11  1  0
M  CHG  1  13  -1
M  END
$$$$
Mac1-UCSF-P0182_0A
     RDKit          3D

 12 13  0  0  0  0  0  0  0  0999 V2000
   34.0510   43.5200   -4.3830 O   0  0  0  0  0  0  0  0  0  0  0  0
   34.0780   44.5970   -4.8730 C   0  0  0  0  0  0  0  0  0  0  0  0
   33.0830   45.3330   -5.7660 N   0  0  0  0  0  0  0  0  0  0  0  0
   33.7090   46.7380   -6.1460 S   0  0  2  0  0  0  0  0  0  0  0  0
   32.7540   47.7200   -5.6830 O   0  0  0  0  0  0  0  0  0  0  0  0
   33.9530   46.7550   -7.5600 O   0  0  0  0  0  0  0  0  0  0  0  0
   35.1780   46.8070   -5.2870 C   0  0  0  0  0  0  0  0  0  0  0  0
   36.1390   47.8050   -5.2080 C   0  0  0  0  0  0  0  0  0  0  0  0
   37.2940   47.6010   -4.4520 C   0  0  0  0  0  0  0  0  0  0  0  0
   37.4910   46.3950   -3.7680 C   0  0  0  0  0  0  0  0  0  0  0  0
   36.5300   45.3860   -3.8360 C   0  0  0  0  0  0  0  0  0  0  0  0
   35.3960   45.5960   -4.6090 C   0  0  0  0  0  0  0  0  0  0  0  0
  2  1  1  0
  3  2  1  0
  4  3  1  0
  4  5  1  1
  6  4  1  0
  7  4  1  0
  8  7  1  0
  9  8  1  0
 10  9  1  0
 11 10  1  0
 12 11  1  0
 12  7  1  0
 12  2  1  0
M  END
$$$$
Mac1-UCSF-P0188_0A
     RDKit          3D

 15 16  0  0  0  0  0  0  0  0999 V2000
   32.0190   44.6160   -5.8040 C   0  0  0  0  0  0  0  0  0  0  0  0
   31.6570   46.0040   -5.4200 C   0  0  2  0  0  0  0  0  0  0  0  0
   31.9990   46.6670   -4.3780 O   0  0  0  0  0  0  0  0  0  0  0  0
   31.5190   47.8670   -4.3770 N   0  0  0  0  0  0  0  0  0  0  0  0
   30.7190   47.9900   -5.4080 C   0  0  0  0  0  0  0  0  0  0  0  0
   30.8190   46.7870   -6.1190 C   0  0  2  0  0  0  0  0  0  0  0  0
   30.1340   46.3120   -7.3490 C   0  0  0  0  0  0  0  0  0  0  0  0
   28.9650   45.8900   -7.2530 O   0  0  0  0  0  0  0  0  0  0  0  0
   30.7620   46.3370   -8.4260 O   0  0  0  0  0  0  0  0  0  0  0  0
   29.9000   49.2020   -5.7130 C   0  0  0  0  0  0  0  0  0  0  0  0
   29.7030   50.1210   -4.7360 C   0  0  0  0  0  0  0  0  0  0  0  0
   28.9680   51.2440   -4.9820 C   0  0  0  0  0  0  0  0  0  0  0  0
   28.4230   51.3860   -6.2250 C   0  0  0  0  0  0  0  0  0  0  0  0
   28.6510   50.4620   -7.2220 C   0  0  0  0  0  0  0  0  0  0  0  0
   29.3830   49.3480   -6.9570 C   0  0  0  0  0  0  0  0  0  0  0  0
  2  1  1  1
  3  2  1  0
  4  3  1  0
  5  4  1  0
  6  5  1  0
  6  2  1  0
  6  7  1  1
  8  7  1  0
  9  7  1  0
 10  5  1  0
 11 10  1  0
 12 11  1  0
 13 12  1  0
 14 13  1  0
 15 14  1  0
 15 10  1  0
M  CHG  1   9  -1
M  END
$$$$
Mac1-UCSF-P0190_0A
     RDKit          3D

 11 12  0  0  0  0  0  0  0  0999 V2000
   28.1360   56.7770   -7.3060 O   0  0  0  0  0  0  0  0  0  0  0  0
   29.3220   56.2890   -6.7730 C   0  0  0  0  0  0  0  0  0  0  0  0
   29.0690   54.7720   -6.7510 C   0  0  0  0  0  0  0  0  0  0  0  0
   29.3430   54.1030   -5.7260 N   0  0  0  0  0  0  0  0  0  0  0  0
   29.0590   52.8520   -5.9750 C   0  0  0  0  0  0  0  0  0  0  0  0
   29.1770   51.7100   -5.1840 C   0  0  0  0  0  0  0  0  0  0  0  0
   28.8250   50.4940   -5.6810 C   0  0  0  0  0  0  0  0  0  0  0  0
   28.3360   50.3730   -7.0290 C   0  0  0  0  0  0  0  0  0  0  0  0
   28.2610   51.4470   -7.7700 C   0  0  0  0  0  0  0  0  0  0  0  0
   28.6350   52.7630   -7.2550 C   0  0  0  0  0  0  0  0  0  0  0  0
   28.6170   53.9470   -7.7150 N   0  0  0  0  0  0  0  0  0  0  0  0
  2  1  1  0
  3  2  1  0
  4  3  1  0
  5  4  1  0
  6  5  1  0
  7  6  1  0
  8  7  1  0
  9  8  1  0
 10  9  1  0
 10  5  1  0
 11 10  1  0
 11  3  1  0
M  END
$$$$
Mac1-UCSF-P0193_0A
     RDKit          3D

 14 14  0  0  0  0  0  0  0  0999 V2000
   33.5160   46.2490   -7.8520 O   0  0  0  0  0  0  0  0  0  0  0  0
   32.5240   45.6480   -7.3830 C   0  0  0  0  0  0  0  0  0  0  0  0
   31.4830   45.6030   -8.0100 O   0  0  0  0  0  0  0  0  0  0  0  0
   32.5910   44.9950   -6.0260 C   0  0  0  0  0  0  0  0  0  0  0  0
   33.8970   45.2470   -5.4550 N   0  0  0  0  0  0  0  0  0  0  0  0
   34.5220   44.2890   -4.6470 C   0  0  0  0  0  0  0  0  0  0  0  0
   33.9760   43.3100   -4.3750 O   0  0  0  0  0  0  0  0  0  0  0  0
   35.8240   44.6170   -4.1750 N   0  0  0  0  0  0  0  0  0  0  0  0
   36.5580   43.6740   -3.3920 C   0  0  2  0  0  0  0  0  0  0  0  0
   37.2300   44.2590   -2.1760 C   0  0  0  0  0  0  0  0  0  0  0  0
   38.2040   43.3050   -1.5370 C   0  0  0  0  0  0  0  0  0  0  0  0
   39.1620   42.7600   -2.5500 C   0  0  0  0  0  0  0  0  0  0  0  0
   38.5380   42.2830   -3.8450 C   0  0  0  0  0  0  0  0  0  0  0  0
   37.5750   43.2440   -4.4290 C   0  0  0  0  0  0  0  0  0  0  0  0
  2  1  1  0
  3  2  1  0
  4  2  1  0
  5  4  1  0
  6  5  1  0
  7  6  1  0
  8  6  1  0
  9  8  1  6
 10  9  1  0
 11 10  1  0
 12 11  1  0
 13 12  1  0
 14  9  1  0
 14 13  1  0
M  CHG  1   1  -1
M  END
$$$$
Mac1-UCSF-P0204_0A
     RDKit          3D

 10 10  0  0  0  0  0  0  0  0999 V2000
   30.9720   46.2920   -7.7580 O   0  0  0  0  0  0  0  0  0  0  0  0
   30.2820   46.3130   -6.7190 C   0  0  0  0  0  0  0  0  0  0  0  0
   29.1520   45.7500   -6.7290 O   0  0  0  0  0  0  0  0  0  0  0  0
   30.8380   47.0140   -5.4510 C   0  0  0  0  0  0  0  0  0  0  0  0
   32.1050   47.6130   -5.4500 C   0  0  0  0  0  0  0  0  0  0  0  0
   32.6130   48.2000   -4.3770 N   0  0  0  0  0  0  0  0  0  0  0  0
   31.8910   48.2750   -3.2670 C   0  0  0  0  0  0  0  0  0  0  0  0
   30.6160   47.7000   -3.2180 C   0  0  0  0  0  0  0  0  0  0  0  0
   29.8140   47.7140   -2.0700 O   0  0  0  0  0  0  0  0  0  0  0  0
   30.0820   47.0530   -4.3050 C   0  0  0  0  0  0  0  0  0  0  0  0
  2  1  1  0
  3  2  1  0
  4  2  1  0
  5  4  1  0
  6  5  1  0
  7  6  1  0
  8  7  1  0
  9  8  1  0
 10  4  1  0
 10  8  1  0
M  CHG  1   1  -1
M  END
$$$$
Mac1-UCSF-P0206_0A
     RDKit          3D

 10 10  0  0  0  0  0  0  0  0999 V2000
   28.7030   49.9940   -6.9990 N   0  0  0  0  0  0  0  0  0  0  0  0
   29.0110   51.0820   -6.1380 C   0  0  0  0  0  0  0  0  0  0  0  0
   29.4850   50.8870   -5.0860 O   0  0  0  0  0  0  0  0  0  0  0  0
   28.7540   52.5070   -6.6380 C   0  0  0  0  0  0  0  0  0  0  0  0
   28.1260   52.8390   -7.8150 C   0  0  0  0  0  0  0  0  0  0  0  0
   27.9800   54.1870   -8.1340 C   0  0  0  0  0  0  0  0  0  0  0  0
   28.4640   55.1910   -7.3580 C   0  0  0  0  0  0  0  0  0  0  0  0
   29.0960   54.8480   -6.2060 C   0  0  0  0  0  0  0  0  0  0  0  0
   29.2210   53.5280   -5.8810 C   0  0  0  0  0  0  0  0  0  0  0  0
   29.8430   53.1740   -4.7370 O   0  0  0  0  0  0  0  0  0  0  0  0
  2  1  1  0
  3  2  1  0
  4  2  1  0
  5  4  1  0
  6  5  1  0
  7  6  1  0
  8  7  1  0
  9  4  1  0
  9  8  1  0
 10  9  1  0
M  END
$$$$
Mac1-UCSF-P0212_0A
     RDKit          3D

 14 14  0  0  0  0  0  0  0  0999 V2000
   30.3390   54.1660   -8.1570 C   0  0  0  0  0  0  0  0  0  0  0  0
   28.8870   54.2780   -7.0590 S   0  0  2  0  0  0  0  0  0  0  0  0
   28.0980   55.3970   -7.5040 O   0  0  0  0  0  0  0  0  0  0  0  0
   29.2980   54.3440   -5.7190 O   0  0  0  0  0  0  0  0  0  0  0  0
   27.9420   52.9050   -7.2300 N   0  0  0  0  0  0  0  0  0  0  0  0
   28.5380   51.6400   -6.8310 C   0  0  0  0  0  0  0  0  0  0  0  0
   28.8180   51.4360   -5.4950 C   0  0  0  0  0  0  0  0  0  0  0  0
   29.4260   50.2590   -5.1290 C   0  0  0  0  0  0  0  0  0  0  0  0
   29.6680   49.2930   -6.0690 C   0  0  1  0  0  0  0  0  0  0  0  0
   29.3650   49.4990   -7.3720 C   0  0  0  0  0  0  0  0  0  0  0  0
   28.8240   50.6700   -7.7710 C   0  0  0  0  0  0  0  0  0  0  0  0
   30.3720   47.9960   -5.6650 C   0  0  1  0  0  0  0  0  0  0  0  0
   30.6740   47.1310   -6.4820 O   0  0  0  0  0  0  0  0  0  0  0  0
   30.7500   47.8540   -4.4910 O   0  0  0  0  0  0  0  0  0  0  0  0
  2  1  1  6
  3  2  1  0
  4  2  1  0
  5  2  1  0
  6  5  1  0
  7  6  1  0
  8  7  1  0
  9  8  1  6
 10  9  1  0
 11 10  1  0
 11  6  1  0
 12  9  1  0
 12 13  1  6
 14 12  1  0
M  CHG  1  14  -1
M  END
$$$$
Mac1-UCSF-P0213_0A
     RDKit          3D

 12 13  0  0  0  0  0  0  0  0999 V2000
   32.7080   46.7540   -7.4590 O   0  0  0  0  0  0  0  0  0  0  0  0
   31.5870   46.2930   -7.2300 C   0  0  0  0  0  0  0  0  0  0  0  0
   30.7410   46.1640   -8.1610 O   0  0  0  0  0  0  0  0  0  0  0  0
   31.2520   45.9470   -5.7970 C   0  0  1  0  0  0  0  0  0  0  0  0
   30.9450   47.2680   -5.0930 C   0  0  0  0  0  0  0  0  0  0  0  0
   29.8460   46.8710   -4.0900 C   0  0  2  0  0  0  0  0  0  0  0  0
   29.4180   47.5310   -2.9560 C   0  0  0  0  0  0  0  0  0  0  0  0
   28.4140   46.9710   -2.1730 C   0  0  0  0  0  0  0  0  0  0  0  0
   27.8490   45.7420   -2.5160 C   0  0  0  0  0  0  0  0  0  0  0  0
   28.3110   45.0720   -3.6320 C   0  0  0  0  0  0  0  0  0  0  0  0
   29.3040   45.6430   -4.4200 C   0  0  0  0  0  0  0  0  0  0  0  0
   29.9800   45.1050   -5.6930 C   0  0  0  0  0  0  0  0  0  0  0  0
  2  1  1  0
  3  2  1  0
  4  2  1  6
  5  4  1  0
  6  5  1  1
  7  6  1  0
  8  7  1  0
  9  8  1  0
 10  9  1  0
 11 10  1  0
 11  6  1  0
 12  4  1  0
 12 11  1  0
M  CHG  1   1  -1
M  END
$$$$
Mac1-UCSF-P0223_0A
     RDKit          3D

 13 13  0  0  0  0  0  0  0  0999 V2000
   27.4260   43.8570   -3.4080 C   0  0  0  0  0  0  0  0  0  0  0  0
   27.4940   45.2410   -3.2150 O   0  0  0  0  0  0  0  0  0  0  0  0
   28.6610   45.8570   -3.6380 C   0  0  0  0  0  0  0  0  0  0  0  0
   29.5280   45.2160   -4.5200 C   0  0  0  0  0  0  0  0  0  0  0  0
   30.6300   45.9320   -4.9310 C   0  0  0  0  0  0  0  0  0  0  0  0
   31.6760   45.3320   -5.8810 C   0  0  0  0  0  0  0  0  0  0  0  0
   31.7420   46.0800   -7.2060 C   0  0  0  0  0  0  0  0  0  0  0  0
   32.8070   46.7110   -7.4250 O   0  0  0  0  0  0  0  0  0  0  0  0
   30.8180   46.0250   -8.0130 O   0  0  0  0  0  0  0  0  0  0  0  0
   30.8470   47.1610   -4.4960 C   0  0  0  0  0  0  0  0  0  0  0  0
   29.9550   47.8000   -3.6100 C   0  0  0  0  0  0  0  0  0  0  0  0
   28.9040   47.1280   -3.1820 C   0  0  1  0  0  0  0  0  0  0  0  0
   28.0060   47.7450   -2.4050 O   0  0  0  0  0  0  0  0  0  0  0  0
  2  1  1  0
  3  2  1  0
  4  3  1  0
  5  4  1  0
  6  5  1  0
  7  6  1  0
  8  7  1  0
  9  7  1  0
 10  5  1  0
 11 10  1  0
 12 11  1  0
 12  3  1  0
 12 13  1  6
M  CHG  1   9  -1
M  END
$$$$
Mac1-UCSF-P0224_0A
     RDKit          3D

 12 12  0  0  0  0  0  0  0  0999 V2000
   28.1140   52.6420   -7.8870 C   0  0  0  0  0  0  0  0  0  0  0  0
   28.0730   50.9010   -8.3710 S   0  0  0  0  0  0  0  0  0  0  0  0
   28.8280   49.9830   -7.0380 C   0  0  2  0  0  0  0  0  0  0  0  0
   29.1390   50.4830   -5.8400 C   0  0  0  0  0  0  0  0  0  0  0  0
   29.7740   49.6410   -4.9160 C   0  0  0  0  0  0  0  0  0  0  0  0
   30.0670   48.3330   -5.3270 C   0  0  0  0  0  0  0  0  0  0  0  0
   30.6960   47.4150   -4.5140 O   0  0  0  0  0  0  0  0  0  0  0  0
   29.7170   47.9030   -6.5600 C   0  0  1  0  0  0  0  0  0  0  0  0
   29.1690   48.7270   -7.4000 C   0  0  0  0  0  0  0  0  0  0  0  0
   30.0540   46.4930   -6.9860 C   0  0  2  0  0  0  0  0  0  0  0  0
   29.8080   46.0680   -8.1040 O   0  0  0  0  0  0  0  0  0  0  0  0
   30.5000   45.7600   -6.1820 O   0  0  0  0  0  0  0  0  0  0  0  0
  2  1  1  0
  3  2  1  6
  4  3  1  0
  5  4  1  0
  6  5  1  0
  7  6  1  0
  8  6  1  0
  8  9  1  6
  9  3  1  0
 10  8  1  0
 10 11  1  1
 12 10  1  0
M  CHG  1  12  -1
M  END
$$$$
Mac1-UCSF-P0226_0A
     RDKit          3D

 14 15  0  0  0  0  0  0  0  0999 V2000
   31.3730   46.0300   -8.2510 O   0  0  0  0  0  0  0  0  0  0  0  0
   32.5410   46.2160   -7.8140 C   0  0  0  0  0  0  0  0  0  0  0  0
   33.2610   47.0210   -8.4190 O   0  0  0  0  0  0  0  0  0  0  0  0
   33.0610   45.4750   -6.5980 C   0  0  0  0  0  0  0  0  0  0  0  0
   32.4900   44.3820   -5.9630 C   0  0  0  0  0  0  0  0  0  0  0  0
   33.2820   44.0110   -4.9970 N   0  0  0  0  0  0  0  0  0  0  0  0
   34.2710   44.8220   -4.9580 N   0  0  0  0  0  0  0  0  0  0  0  0
   34.2450   45.6910   -5.8960 C   0  0  0  0  0  0  0  0  0  0  0  0
   35.2960   44.7510   -4.0060 C   0  0  0  0  0  0  0  0  0  0  0  0
   36.0960   45.8460   -3.8420 C   0  0  0  0  0  0  0  0  0  0  0  0
   37.0920   45.8030   -2.9060 C   0  0  0  0  0  0  0  0  0  0  0  0
   37.2470   44.6540   -2.1600 C   0  0  0  0  0  0  0  0  0  0  0  0
   36.4120   43.5790   -2.3340 C   0  0  0  0  0  0  0  0  0  0  0  0
   35.4350   43.6190   -3.2640 C   0  0  0  0  0  0  0  0  0  0  0  0
  2  1  1  0
  3  2  1  0
  4  2  1  0
  5  4  1  0
  6  5  1  0
  7  6  1  0
  8  4  1  0
  8  7  1  0
  9  7  1  0
 10  9  1  0
 11 10  1  0
 12 11  1  0
 13 12  1  0
 14 13  1  0
 14  9  1  0
M  CHG  1   1  -1
M  END
$$$$
Mac1-UCSF-P0227_0A
     RDKit          3D

 13 14  0  0  0  0  0  0  0  0999 V2000
   33.7530   49.8100  -18.9040 C   0  0  0  0  0  0  0  0  0  0  0  0
   33.2510   49.7460  -20.3530 C   0  0  0  0  0  0  0  0  0  0  0  0
   33.1140   50.9400  -21.0230 C   0  0  0  0  0  0  0  0  0  0  0  0
   32.6670   50.9680  -22.3290 C   0  0  0  0  0  0  0  0  0  0  0  0
   32.3350   49.7790  -22.9670 C   0  0  0  0  0  0  0  0  0  0  0  0
   31.8700   49.5240  -24.2570 C   0  0  0  0  0  0  0  0  0  0  0  0
   31.6850   48.1740  -24.3360 C   0  0  2  0  0  0  0  0  0  0  0  0
   32.0630   47.6300  -23.1950 N   0  0  0  0  0  0  0  0  0  0  0  0
   32.4510   48.5750  -22.3250 C   0  0  0  0  0  0  0  0  0  0  0  0
   32.9210   48.5410  -20.9850 C   0  0  0  0  0  0  0  0  0  0  0  0
   31.2830   47.4700  -25.6170 C   0  0  2  0  0  0  0  0  0  0  0  0
   31.6560   46.3000  -25.7630 O   0  0  0  0  0  0  0  0  0  0  0  0
   30.7480   48.0350  -26.5960 O   0  0  0  0  0  0  0  0  0  0  0  0
  2  1  1  0
  3  2  1  0
  4  3  1  0
  5  4  1  0
  6  5  1  0
  7  6  1  6
  8  7  1  0
  9  8  1  0
  9  5  1  0
 10  9  1  0
 10  2  1  0
 11  7  1  0
 11 12  1  6
 13 11  1  0
M  CHG  1  13  -1
M  END
$$$$
Mac1-UCSF-P0228_0A
     RDKit          3D

 12 13  0  0  0  0  0  0  0  0999 V2000
   29.5930   47.7920   -6.8070 O   0  0  0  0  0  0  0  0  0  0  0  0
   29.8980   48.3810   -5.7680 C   0  0  0  0  0  0  0  0  0  0  0  0
   30.4330   47.7480   -4.8040 O   0  0  0  0  0  0  0  0  0  0  0  0
   29.6410   49.8810   -5.6910 C   0  0  0  0  0  0  0  0  0  0  0  0
   29.7590   50.4800   -4.4470 C   0  0  0  0  0  0  0  0  0  0  0  0
   29.5500   51.8190   -4.2890 C   0  0  0  0  0  0  0  0  0  0  0  0
   29.2390   52.6080   -5.3820 C   0  0  0  0  0  0  0  0  0  0  0  0
   29.0290   54.0470   -5.4200 O   0  0  0  0  0  0  0  0  0  0  0  0
   29.1180   54.3780   -6.8150 C   0  0  0  0  0  0  0  0  0  0  0  0
   28.7380   53.1490   -7.5700 C   0  0  0  0  0  0  0  0  0  0  0  0
   29.0820   52.0410   -6.6440 C   0  0  0  0  0  0  0  0  0  0  0  0
   29.2710   50.6300   -6.8120 C   0  0  0  0  0  0  0  0  0  0  0  0
  2  1  1  0
  3  2  1  0
  4  2  1  0
  5  4  1  0
  6  5  1  0
  7  6  1  0
  8  7  1  0
  9  8  1  0
 10  9  1  0
 11 10  1  0
 11  7  1  0
 12 11  1  0
 12  4  1  0
M  CHG  1   1  -1
M  END
$$$$
Mac1-UCSF-P0231_0A
     RDKit          3D

 15 16  0  0  0  0  0  0  0  0999 V2000
   33.5620   45.8450   -8.0910 O   0  0  0  0  0  0  0  0  0  0  0  0
   32.4660   45.4370   -7.7230 C   0  0  0  0  0  0  0  0  0  0  0  0
   31.3940   45.7270   -8.2950 O   0  0  0  0  0  0  0  0  0  0  0  0
   32.5180   44.5450   -6.5050 C   0  0  0  0  0  0  0  0  0  0  0  0
   31.2580   44.7390   -5.7150 C   0  0  0  0  0  0  0  0  0  0  0  0
   30.2180   43.7900   -5.7850 N   0  0  0  0  0  0  0  0  0  0  0  0
   29.0670   44.0580   -5.0400 N   0  0  0  0  0  0  0  0  0  0  0  0
   28.8810   45.2130   -4.1810 C   0  0  0  0  0  0  0  0  0  0  0  0
   27.9110   45.3090   -3.5750 O   0  0  0  0  0  0  0  0  0  0  0  0
   30.0280   46.2190   -4.0770 C   0  0  0  0  0  0  0  0  0  0  0  0
   29.9600   47.3780   -3.3020 C   0  0  0  0  0  0  0  0  0  0  0  0
   31.0340   48.2630   -3.2570 C   0  0  0  0  0  0  0  0  0  0  0  0
   32.1720   48.0190   -4.0180 C   0  0  0  0  0  0  0  0  0  0  0  0
   32.2140   46.8670   -4.7990 C   0  0  0  0  0  0  0  0  0  0  0  0
   31.1350   45.9720   -4.8230 C   0  0  0  0  0  0  0  0  0  0  0  0
  2  1  1  0
  3  2  1  0
  4  2  1  0
  5  4  1  0
  6  5  1  0
  7  6  1  0
  8  7  1  0
  9  8  1  0
 10  8  1  0
 11 10  1  0
 12 11  1  0
 13 12  1  0
 14 13  1  0
 15  5  1  0
 15 14  1  0
 15 10  1  0
M  CHG  1   1  -1
M  END
$$$$
Mac1-UCSF-P0255_0A
     RDKit          3D

 13 14  0  0  0  0  0  0  0  0999 V2000
   31.0350   45.9890   -8.3300 O   0  0  0  0  0  0  0  0  0  0  0  0
   31.8990   45.8820   -7.6160 C   0  0  2  0  0  0  0  0  0  0  0  0
   32.9620   46.4420   -7.8810 O   0  0  0  0  0  0  0  0  0  0  0  0
   32.0040   45.0190   -6.4110 C   0  0  0  0  0  0  0  0  0  0  0  0
   31.0160   45.3560   -5.3780 C   0  0  2  0  0  0  0  0  0  0  0  0
   29.9050   44.6150   -4.9900 C   0  0  0  0  0  0  0  0  0  0  0  0
   29.2170   45.4010   -3.9750 C   0  0  1  0  0  0  0  0  0  0  0  0
   28.0770   44.9590   -3.3100 C   0  0  0  0  0  0  0  0  0  0  0  0
   27.5470   45.7980   -2.3700 C   0  0  0  0  0  0  0  0  0  0  0  0
   28.1870   46.9690   -2.0440 C   0  0  0  0  0  0  0  0  0  0  0  0
   29.2750   47.4510   -2.7060 C   0  0  0  0  0  0  0  0  0  0  0  0
   29.7990   46.6270   -3.6230 C   0  0  2  0  0  0  0  0  0  0  0  0
   31.1670   46.8520   -4.5990 S   0  0  0  0  0  0  0  0  0  0  0  0
  2  1  1  6
  3  2  1  0
  4  2  1  0
  5  4  1  6
  6  5  1  0
  7  6  1  1
  8  7  1  0
  9  8  1  0
 10  9  1  0
 11 10  1  0
 12 11  1  6
 12  7  1  0
 13 12  1  0
 13  5  1  0
M  CHG  1   1  -1
M  END
$$$$
Mac1-UCSF-P0263_0A
     RDKit          3D

 14 15  0  0  0  0  0  0  0  0999 V2000
   28.6910   59.1340   -6.8710 O   0  0  0  0  0  0  0  0  0  0  0  0
   27.7150   58.3660   -6.7620 C   0  0  0  0  0  0  0  0  0  0  0  0
   26.5550   58.8100   -6.8020 O   0  0  0  0  0  0  0  0  0  0  0  0
   27.9140   56.9030   -6.5180 C   0  0  0  0  0  0  0  0  0  0  0  0
   29.1630   56.2720   -7.1180 C   0  0  0  0  0  0  0  0  0  0  0  0
   29.0470   54.8090   -6.8250 C   0  0  0  0  0  0  0  0  0  0  0  0
   29.2460   54.2170   -5.6700 N   0  0  0  0  0  0  0  0  0  0  0  0
   28.9530   52.9040   -5.8210 C   0  0  0  0  0  0  0  0  0  0  0  0
   28.9860   51.8000   -4.9410 C   0  0  0  0  0  0  0  0  0  0  0  0
   28.6570   50.5440   -5.4350 C   0  0  0  0  0  0  0  0  0  0  0  0
   28.2850   50.3720   -6.7600 C   0  0  0  0  0  0  0  0  0  0  0  0
   28.2410   51.4580   -7.6130 C   0  0  0  0  0  0  0  0  0  0  0  0
   28.5820   52.7350   -7.1330 C   0  0  0  0  0  0  0  0  0  0  0  0
   28.6560   53.9300   -7.7260 N   0  0  0  0  0  0  0  0  0  0  0  0
  2  1  1  0
  3  2  1  0
  4  2  1  0
  5  4  1  0
  6  5  1  0
  7  6  1  0
  8  7  1  0
  9  8  1  0
 10  9  1  0
 11 10  1  0
 12 11  1  0
 13 12  1  0
 13  8  1  0
 14 13  1  0
 14  6  1  0
M  CHG  1   1  -1
M  END
$$$$
Mac1-UCSF-P0271_0A
     RDKit          3D

 12 13  0  0  0  0  0  0  0  0999 V2000
   29.9150   49.7520   -4.6570 O   0  0  0  0  0  0  0  0  0  0  0  0
   29.4110   50.7820   -5.4600 C   0  0  0  0  0  0  0  0  0  0  0  0
   28.8340   50.5200   -6.7130 C   0  0  0  0  0  0  0  0  0  0  0  0
   28.3610   51.5910   -7.4890 C   0  0  0  0  0  0  0  0  0  0  0  0
   28.4640   52.9060   -7.0000 C   0  0  0  0  0  0  0  0  0  0  0  0
   27.9610   54.0740   -7.8220 C   0  0  0  0  0  0  0  0  0  0  0  0
   28.2730   55.4300   -7.4130 C   0  0  0  0  0  0  0  0  0  0  0  0
   28.7480   55.6470   -6.0200 C   0  0  0  0  0  0  0  0  0  0  0  0
   28.7730   56.7630   -5.6130 O   0  0  0  0  0  0  0  0  0  0  0  0
   29.1510   54.5140   -5.2210 O   0  0  0  0  0  0  0  0  0  0  0  0
   29.0440   53.1480   -5.7300 C   0  0  0  0  0  0  0  0  0  0  0  0
   29.5040   52.0790   -4.9800 C   0  0  0  0  0  0  0  0  0  0  0  0
  2  1  1  0
  3  2  1  0
  4  3  1  0
  5  4  1  0
  6  5  1  0
  7  6  1  0
  8  7  1  0
  9  8  1  0
 10  8  1  0
 11  5  1  0
 11 10  1  0
 12 11  1  0
 12  2  1  0
M  END
$$$$
Mac1-UCSF-P0277_0A
     RDKit          3D

 12 12  0  0  0  0  0  0  0  0999 V2000
   27.6340   46.4850   -2.4590 Cl  0  0  0  0  0  0  0  0  0  0  0  0
   30.2070   48.0910   -2.7740 Cl  0  0  0  0  0  0  0  0  0  0  0  0
   32.9690   46.4510   -7.6110 O   0  0  0  0  0  0  0  0  0  0  0  0
   31.8820   45.8720   -7.4890 C   0  0  1  0  0  0  0  0  0  0  0  0
   30.8980   45.9250   -8.2580 O   0  0  0  0  0  0  0  0  0  0  0  0
   31.8140   44.8910   -6.2890 C   0  0  0  0  0  0  0  0  0  0  0  0
   30.7780   45.2280   -5.3040 C   0  0  2  0  0  0  0  0  0  0  0  0
   29.5650   44.4950   -5.2190 C   0  0  0  0  0  0  0  0  0  0  0  0
   28.6820   44.9400   -4.2700 C   0  0  0  0  0  0  0  0  0  0  0  0
   28.8430   46.0110   -3.5890 C   0  0  2  0  0  0  0  0  0  0  0  0
   29.9360   46.7330   -3.6920 C   0  0  0  0  0  0  0  0  0  0  0  0
   30.8870   46.3750   -4.5680 C   0  0  0  0  0  0  0  0  0  0  0  0
  4  3  1  6
  5  4  1  0
  6  4  1  0
  7  6  1  6
  8  7  1  0
  9  8  1  0
 10  9  1  0
 10  1  1  1
 11 10  1  0
 11  2  1  0
 12 11  1  0
 12  7  1  0
M  CHG  1   3  -1
M  END
$$$$
Mac1-UCSF-P0282_0A
     RDKit          3D

  9 10  0  0  0  0  0  0  0  0999 V2000
   28.3860   51.5620   -7.0350 C   0  0  0  0  0  0  0  0  0  0  0  0
   28.8360   50.4390   -6.3800 C   0  0  0  0  0  0  0  0  0  0  0  0
   28.7600   49.3810   -7.2920 C   0  0  0  0  0  0  0  0  0  0  0  0
   29.0840   48.0270   -7.2270 C   0  0  0  0  0  0  0  0  0  0  0  0
   28.8460   47.2610   -8.3690 C   0  0  0  0  0  0  0  0  0  0  0  0
   28.3280   47.8650   -9.4990 C   0  0  0  0  0  0  0  0  0  0  0  0
   28.0080   49.1410   -9.5370 N   0  0  0  0  0  0  0  0  0  0  0  0
   28.2320   49.9010   -8.4490 C   0  0  0  0  0  0  0  0  0  0  0  0
   28.0280   51.2310   -8.2840 N   0  0  0  0  0  0  0  0  0  0  0  0
  2  1  1  0
  3  2  1  0
  4  3  1  0
  5  4  1  0
  6  5  1  0
  7  6  1  0
  8  7  1  0
  8  3  1  0
  9  8  1  0
  9  1  1  0
M  END
$$$$
Mac1-UCSF-P0283_0A
     RDKit          3D

 10 11  0  0  0  0  0  0  0  0999 V2000
   27.9540   54.5870   -8.3840 N   0  0  0  0  0  0  0  0  0  0  0  0
   28.4840   54.0170   -7.1780 C   0  0  0  0  0  0  0  0  0  0  0  0
   28.9670   54.6160   -6.0870 N   0  0  0  0  0  0  0  0  0  0  0  0
   29.3380   53.7100   -5.1970 O   0  0  0  0  0  0  0  0  0  0  0  0
   29.1450   52.4910   -5.6830 C   0  0  0  0  0  0  0  0  0  0  0  0
   29.4020   51.2180   -5.1440 C   0  0  0  0  0  0  0  0  0  0  0  0
   29.1010   50.1160   -5.9070 C   0  0  0  0  0  0  0  0  0  0  0  0
   28.5460   50.2420   -7.1890 C   0  0  0  0  0  0  0  0  0  0  0  0
   28.2920   51.4990   -7.7230 C   0  0  0  0  0  0  0  0  0  0  0  0
   28.6040   52.6170   -6.9430 C   0  0  0  0  0  0  0  0  0  0  0  0
  2  1  1  0
  3  2  1  0
  4  3  1  0
  5  4  1  0
  6  5  1  0
  7  6  1  0
  8  7  1  0
  9  8  1  0
 10  9  1  0
 10  5  1  0
 10  2  1  0
M  END
$$$$
Mac1-UCSF-P0284_0A
     RDKit          3D

 11 11  0  0  0  0  0  0  0  0999 V2000
   27.9010   51.3770   -7.2800 C   0  0  0  0  0  0  0  0  0  0  0  0
   28.6920   50.3530   -6.5290 C   0  0  0  0  0  0  0  0  0  0  0  0
   29.1750   50.7210   -5.3330 C   0  0  0  0  0  0  0  0  0  0  0  0
   29.8770   49.8180   -4.6050 C   0  0  0  0  0  0  0  0  0  0  0  0
   30.0640   48.5550   -5.0960 C   0  0  0  0  0  0  0  0  0  0  0  0
   30.7560   47.6380   -4.3270 O   0  0  0  0  0  0  0  0  0  0  0  0
   29.5770   48.1700   -6.3160 C   0  0  2  0  0  0  0  0  0  0  0  0
   28.8760   49.0850   -7.0030 C   0  0  0  0  0  0  0  0  0  0  0  0
   29.7830   46.7510   -6.7770 C   0  0  0  0  0  0  0  0  0  0  0  0
   29.4060   46.3530   -7.8850 O   0  0  0  0  0  0  0  0  0  0  0  0
   30.2760   45.9180   -6.0510 O   0  0  0  0  0  0  0  0  0  0  0  0
  2  1  1  0
  3  2  1  0
  4  3  1  0
  5  4  1  0
  6  5  1  0
  7  5  1  0
  8  7  1  0
  8  2  1  0
  7  9  1  1
 10  9  1  0
 11  9  1  0
M  CHG  1  11  -1
M  END
$$$$
Mac1-UCSF-P0301_0A
     RDKit          3D

 12 13  0  0  0  0  0  0  0  0999 V2000
   29.9780   45.8020   -6.2130 O   0  0  0  0  0  0  0  0  0  0  0  0
   30.1700   46.9110   -5.7100 C   0  0  0  0  0  0  0  0  0  0  0  0
   30.9420   47.0220   -4.7330 O   0  0  0  0  0  0  0  0  0  0  0  0
   29.4660   48.1360   -6.3120 C   0  0  0  0  0  0  0  0  0  0  0  0
   29.2340   49.2610   -5.5530 C   0  0  0  0  0  0  0  0  0  0  0  0
   28.5910   50.3610   -6.0850 C   0  0  0  0  0  0  0  0  0  0  0  0
   28.1770   50.3420   -7.3930 C   0  0  0  0  0  0  0  0  0  0  0  0
   28.4040   49.2120   -8.1680 C   0  0  1  0  0  0  0  0  0  0  0  0
   28.1280   48.9640   -9.5180 O   0  0  0  0  0  0  0  0  0  0  0  0
   28.3100   47.5850   -9.6880 C   0  0  0  0  0  0  0  0  0  0  0  0
   29.1450   47.1550   -8.6670 O   0  0  0  0  0  0  0  0  0  0  0  0
   29.0480   48.1270   -7.6500 C   0  0  0  0  0  0  0  0  0  0  0  0
  2  1  1  0
  3  2  1  0
  4  2  1  0
  5  4  1  0
  6  5  1  0
  7  6  1  0
  8  7  1  6
  9  8  1  0
 10  9  1  0
 11 10  1  0
 12 11  1  0
 12  4  1  0
 12  8  1  0
M  CHG  1   1  -1
M  END
$$$$
Mac1-UCSF-P0302_0A
     RDKit          3D

 14 14  0  0  0  0  0  0  0  0999 V2000
   30.4770   44.8370   -6.3630 O   0  0  0  0  0  0  0  0  0  0  0  0
   30.3790   46.0180   -6.6680 C   0  0  0  0  0  0  0  0  0  0  0  0
   30.3640   46.3130   -7.8220 O   0  0  0  0  0  0  0  0  0  0  0  0
   30.2270   47.1190   -5.5660 C   0  0  0  0  0  0  0  0  0  0  0  0
   29.7780   48.3040   -6.1420 N   0  0  0  0  0  0  0  0  0  0  0  0
   29.4990   49.4250   -5.3390 C   0  0  1  0  0  0  0  0  0  0  0  0
   29.6720   49.4040   -4.2350 O   0  0  0  0  0  0  0  0  0  0  0  0
   29.0580   50.6620   -6.0790 C   0  0  0  0  0  0  0  0  0  0  0  0
   28.5120   50.5340   -7.3080 C   0  0  0  0  0  0  0  0  0  0  0  0
   28.1270   51.6700   -8.0290 C   0  0  0  0  0  0  0  0  0  0  0  0
   28.3130   52.9360   -7.4430 C   0  0  0  0  0  0  0  0  0  0  0  0
   28.8770   53.0290   -6.1920 C   0  0  0  0  0  0  0  0  0  0  0  0
   29.1270   54.1930   -5.6030 O   0  0  0  0  0  0  0  0  0  0  0  0
   29.2610   51.9220   -5.4850 C   0  0  0  0  0  0  0  0  0  0  0  0
  2  1  1  0
  3  2  1  0
  4  2  1  0
  5  4  1  0
  6  5  1  0
  6  7  1  6
  8  6  1  0
  9  8  1  0
 10  9  1  0
 11 10  1  0
 12 11  1  0
 13 12  1  0
 14 12  1  0
 14  8  1  0
M  CHG  1   1  -1
M  END
$$$$
Mac1-UCSF-P0303_0A
     RDKit          3D

 13 14  0  0  0  0  0  0  0  0999 V2000
   29.8010   56.3350   -8.6350 N   0  0  0  0  0  0  0  0  0  0  0  0
   28.5440   56.0620   -7.5110 S   0  0  2  0  0  0  0  0  0  0  0  0
   27.3060   56.1350   -8.0590 O   0  0  0  0  0  0  0  0  0  0  0  0
   28.7610   57.0010   -6.4950 O   0  0  0  0  0  0  0  0  0  0  0  0
   28.7020   54.3830   -6.9440 C   0  0  1  0  0  0  0  0  0  0  0  0
   29.0070   53.9720   -5.7750 N   0  0  0  0  0  0  0  0  0  0  0  0
   28.9840   52.6750   -5.8190 C   0  0  0  0  0  0  0  0  0  0  0  0
   29.2850   51.7360   -4.8980 C   0  0  0  0  0  0  0  0  0  0  0  0
   29.1380   50.3860   -5.2110 C   0  0  0  0  0  0  0  0  0  0  0  0
   28.7710   50.0020   -6.4580 C   0  0  0  0  0  0  0  0  0  0  0  0
   28.4940   50.9160   -7.4220 C   0  0  0  0  0  0  0  0  0  0  0  0
   28.6080   52.2890   -7.0780 C   0  0  0  0  0  0  0  0  0  0  0  0
   28.4480   53.3960   -7.7100 N   0  0  0  0  0  0  0  0  0  0  0  0
  2  1  1  6
  3  2  1  0
  4  2  1  0
  5  2  1  0
  5  6  1  1
  7  6  1  0
  8  7  1  0
  9  8  1  0
 10  9  1  0
 11 10  1  0
 12 11  1  0
 12  7  1  0
 13 12  1  0
 13  5  1  0
M  END
$$$$
Mac1-UCSF-P0305_0A
     RDKit          3D

 10 10  0  0  0  0  0  0  0  0999 V2000
   30.2810   47.0780   -8.7950 O   0  0  0  0  0  0  0  0  0  0  0  0
   29.9160   47.2900   -7.5670 C   0  0  0  0  0  0  0  0  0  0  0  0
   30.0390   46.4500   -6.6410 O   0  0  0  0  0  0  0  0  0  0  0  0
   29.3170   48.6470   -7.2340 C   0  0  0  0  0  0  0  0  0  0  0  0
   29.5560   49.1260   -6.0370 N   0  0  0  0  0  0  0  0  0  0  0  0
   29.1140   50.2910   -5.6450 C   0  0  0  0  0  0  0  0  0  0  0  0
   28.3600   51.0190   -6.4950 C   0  0  0  0  0  0  0  0  0  0  0  0
   28.0620   50.5390   -7.7580 C   0  0  0  0  0  0  0  0  0  0  0  0
   28.5500   49.3210   -8.1710 C   0  0  0  0  0  0  0  0  0  0  0  0
   28.2530   48.8480   -9.4880 O   0  0  0  0  0  0  0  0  0  0  0  0
  2  1  1  0
  3  2  1  0
  4  2  1  0
  5  4  1  0
  6  5  1  0
  7  6  1  0
  8  7  1  0
  9  4  1  0
  9  8  1  0
 10  9  1  0
M  CHG  1   1  -1
M  END
$$$$
Mac1-UCSF-P0306_0A
     RDKit          3D

 11 12  0  0  0  0  0  0  0  0999 V2000
   28.5780   48.0110   -9.9790 C   0  0  0  0  0  0  0  0  0  0  0  0
   28.8430   47.0920   -8.9980 C   0  0  0  0  0  0  0  0  0  0  0  0
   28.9530   47.7350   -7.8620 N   0  0  0  0  0  0  0  0  0  0  0  0
   28.7230   49.0110   -8.0730 C   0  0  2  0  0  0  0  0  0  0  0  0
   28.4910   49.1630   -9.4040 N   0  0  0  0  0  0  0  0  0  0  0  0
   28.8590   50.0560   -6.9800 C   0  0  2  0  0  0  0  0  0  0  0  0
   28.6150   51.3680   -7.2390 C   0  0  0  0  0  0  0  0  0  0  0  0
   28.8190   52.3860   -6.3030 C   0  0  0  0  0  0  0  0  0  0  0  0
   29.2410   51.9970   -5.1190 N   0  0  0  0  0  0  0  0  0  0  0  0
   29.5240   50.7220   -4.8110 C   0  0  0  0  0  0  0  0  0  0  0  0
   29.3430   49.7100   -5.7340 C   0  0  0  0  0  0  0  0  0  0  0  0
  2  1  1  0
  3  2  1  0
  4  3  1  6
  5  4  1  0
  5  1  1  0
  6  4  1  0
  6  7  1  6
  8  7  1  0
  9  8  1  0
 10  9  1  0
 11  6  1  0
 11 10  1  0
M  END
$$$$
Mac1-UCSF-P0306_1A
     RDKit          3D

 11 12  0  0  0  0  0  0  0  0999 V2000
   29.0230   55.7610   -6.5630 C   0  0  0  0  0  0  0  0  0  0  0  0
   28.4530   55.4730   -7.7450 C   0  0  0  0  0  0  0  0  0  0  0  0
   28.2920   54.1930   -7.8000 N   0  0  0  0  0  0  0  0  0  0  0  0
   28.7340   53.6830   -6.6620 C   0  0  2  0  0  0  0  0  0  0  0  0
   29.2460   54.6540   -5.9270 N   0  0  0  0  0  0  0  0  0  0  0  0
   28.8700   52.2670   -6.2980 C   0  0  2  0  0  0  0  0  0  0  0  0
   29.3520   51.8940   -5.0730 C   0  0  0  0  0  0  0  0  0  0  0  0
   29.5630   50.5450   -4.8150 C   0  0  0  0  0  0  0  0  0  0  0  0
   29.3080   49.6300   -5.7240 N   0  0  0  0  0  0  0  0  0  0  0  0
   28.8510   49.9540   -6.9070 C   0  0  0  0  0  0  0  0  0  0  0  0
   28.6360   51.2460   -7.2150 C   0  0  0  0  0  0  0  0  0  0  0  0
  2  1  1  0
  3  2  1  0
  4  3  1  6
  5  4  1  0
  5  1  1  0
  6  4  1  0
  6  7  1  6
  8  7  1  0
  9  8  1  0
 10  9  1  0
 11 10  1  0
 11  6  1  0
M  END
$$$$
Mac1-UCSF-P0309_0B
     RDKit          3D

 11 12  0  0  0  0  0  0  0  0999 V2000
   21.1170   51.0080  -26.8020 O   0  0  0  0  0  0  0  0  0  0  0  0
   21.1880   49.9800  -27.3680 C   0  0  0  0  0  0  0  0  0  0  0  0
   21.3200   48.6620  -26.7800 N   0  0  0  0  0  0  0  0  0  0  0  0
   21.3990   47.6660  -27.9410 C   0  0  0  0  0  0  0  0  0  0  0  0
   21.5090   46.2680  -27.9750 C   0  0  0  0  0  0  0  0  0  0  0  0
   21.5350   45.5920  -29.1990 C   0  0  0  0  0  0  0  0  0  0  0  0
   21.4240   46.3270  -30.4080 C   0  0  0  0  0  0  0  0  0  0  0  0
   21.2960   47.7240  -30.3850 C   0  0  0  0  0  0  0  0  0  0  0  0
   21.2880   48.4010  -29.1670 C   0  0  0  0  0  0  0  0  0  0  0  0
   21.1750   49.8570  -28.8170 C   0  0  0  0  0  0  0  0  0  0  0  0
   21.0450   50.7810  -29.5360 O   0  0  0  0  0  0  0  0  0  0  0  0
  2  1  1  0
  3  2  1  0
  4  3  1  0
  5  4  1  0
  6  5  1  0
  7  6  1  0
  8  7  1  0
  9  8  1  0
  9  4  1  0
 10  9  1  0
 10  2  1  0
 11 10  1  0
M  END
$$$$
Mac1-UCSF-P0319_0A
     RDKit          3D

 11 11  0  0  0  0  0  0  0  0999 V2000
   33.4540   46.0840   -8.4130 O   0  0  0  0  0  0  0  0  0  0  0  0
   32.3680   45.7620   -7.9280 C   0  0  0  0  0  0  0  0  0  0  0  0
   31.2660   46.0040   -8.4870 O   0  0  0  0  0  0  0  0  0  0  0  0
   32.4200   45.0340   -6.6500 C   0  0  0  0  0  0  0  0  0  0  0  0
   31.3160   45.4920   -5.7500 C   0  0  0  0  0  0  0  0  0  0  0  0
   31.3740   46.7350   -5.1080 C   0  0  0  0  0  0  0  0  0  0  0  0
   30.3240   47.1450   -4.2900 C   0  0  0  0  0  0  0  0  0  0  0  0
   29.2460   46.2930   -4.1210 C   0  0  0  0  0  0  0  0  0  0  0  0
   29.2070   45.0640   -4.8030 C   0  0  0  0  0  0  0  0  0  0  0  0
   28.1860   44.1400   -4.7220 O   0  0  0  0  0  0  0  0  0  0  0  0
   30.2250   44.6680   -5.6170 C   0  0  0  0  0  0  0  0  0  0  0  0
  2  1  1  0
  3  2  1  0
  4  2  1  0
  5  4  1  0
  6  5  1  0
  7  6  1  0
  8  7  1  0
  9  8  1  0
 10  9  1  0
 11  5  1  0
 11  9  1  0
M  CHG  1   1  -1
M  END
$$$$
Mac1-UCSF-P0321_0A
     RDKit          3D

 10 10  0  0  0  0  0  0  0  0999 V2000
   27.8360   52.2340   -8.4460 Cl  0  0  0  0  0  0  0  0  0  0  0  0
   29.6680   47.5700   -6.8280 O   0  0  0  0  0  0  0  0  0  0  0  0
   29.9710   48.2700   -5.8250 C   0  0  0  0  0  0  0  0  0  0  0  0
   30.6150   47.8140   -4.8390 O   0  0  0  0  0  0  0  0  0  0  0  0
   29.5060   49.7160   -5.8040 C   0  0  0  0  0  0  0  0  0  0  0  0
   29.6250   50.4710   -4.6600 C   0  0  0  0  0  0  0  0  0  0  0  0
   29.1770   51.7800   -4.6420 C   0  0  0  0  0  0  0  0  0  0  0  0
   28.6300   52.3370   -5.7820 C   0  0  0  0  0  0  0  0  0  0  0  0
   28.5370   51.5750   -6.9290 C   0  0  0  0  0  0  0  0  0  0  0  0
   28.9550   50.2670   -6.9300 C   0  0  0  0  0  0  0  0  0  0  0  0
  3  2  1  0
  4  3  1  0
  5  3  1  0
  6  5  1  0
  7  6  1  0
  8  7  1  0
  9  8  1  0
  9  1  1  0
 10  9  1  0
 10  5  1  0
M  CHG  1   2  -1
M  END
$$$$
Mac1-UCSF-P0326_0A
     RDKit          3D

 15 16  0  0  0  0  0  0  0  0999 V2000
   28.9670   52.5680   -4.7770 Cl  0  0  0  0  0  0  0  0  0  0  0  0
   33.2120   46.2620   -7.6120 O   0  0  0  0  0  0  0  0  0  0  0  0
   32.2040   45.6240   -7.4670 C   0  0  1  0  0  0  0  0  0  0  0  0
   31.4760   45.2830   -8.3950 O   0  0  0  0  0  0  0  0  0  0  0  0
   31.9640   45.1890   -6.0280 C   0  0  0  0  0  0  0  0  0  0  0  0
   30.5220   45.1910   -5.6670 C   0  0  0  0  0  0  0  0  0  0  0  0
   30.0200   46.6100   -5.9700 C   0  0  2  0  0  0  0  0  0  0  0  0
   30.1060   47.6030   -5.1290 N   0  0  0  0  0  0  0  0  0  0  0  0
   29.5880   48.7210   -5.5480 C   0  0  1  0  0  0  0  0  0  0  0  0
   29.6350   49.8860   -4.9040 C   0  0  0  0  0  0  0  0  0  0  0  0
   29.0620   50.9850   -5.5520 C   0  0  0  0  0  0  0  0  0  0  0  0
   28.5490   50.9220   -6.7900 C   0  0  0  0  0  0  0  0  0  0  0  0
   28.5430   49.7620   -7.4640 C   0  0  0  0  0  0  0  0  0  0  0  0
   29.0710   48.6740   -6.8370 C   0  0  0  0  0  0  0  0  0  0  0  0
   29.2150   47.0720   -7.4450 S   0  0  0  0  0  0  0  0  0  0  0  0
  3  2  1  6
  4  3  1  0
  5  3  1  0
  6  5  1  0
  7  6  1  1
  8  7  1  0
  9  8  1  0
  9 10  1  6
 11 10  1  0
 11  1  1  0
 12 11  1  0
 13 12  1  0
 14  9  1  0
 14 13  1  0
 15 14  1  0
 15  7  1  0
M  CHG  1   2  -1
M  END
$$$$
Mac1-UCSF-P0328_0A
     RDKit          3D

 10 10  0  0  0  0  0  0  0  0999 V2000
   30.3570   47.6560   -4.9450 O   0  0  0  0  0  0  0  0  0  0  0  0
   29.7850   48.3110   -5.8560 C   0  0  2  0  0  0  0  0  0  0  0  0
   29.4820   47.7430   -6.9230 O   0  0  0  0  0  0  0  0  0  0  0  0
   29.5160   49.8070   -5.7470 C   0  0  1  0  0  0  0  0  0  0  0  0
   29.7650   50.4840   -4.5750 C   0  0  0  0  0  0  0  0  0  0  0  0
   29.5410   51.8510   -4.5370 C   0  0  0  0  0  0  0  0  0  0  0  0
   29.1000   52.5530   -5.6420 C   0  0  0  0  0  0  0  0  0  0  0  0
   28.9290   53.9310   -5.5390 O   0  0  0  0  0  0  0  0  0  0  0  0
   28.8720   51.8800   -6.8200 C   0  0  0  0  0  0  0  0  0  0  0  0
   29.0850   50.5100   -6.8730 C   0  0  0  0  0  0  0  0  0  0  0  0
  2  1  1  6
  3  2  1  0
  4  2  1  0
  4  5  1  6
  6  5  1  0
  7  6  1  0
  8  7  1  0
  9  7  1  0
 10  9  1  0
 10  4  1  0
M  CHG  1   1  -1
M  END
$$$$
Mac1-UCSF-P0333_0A
     RDKit          3D

 10 11  0  0  0  0  0  0  0  0999 V2000
   29.5560   48.6200   -5.2520 O   0  0  0  0  0  0  0  0  0  0  0  0
   29.2530   49.8870   -5.8030 C   0  0  0  0  0  0  0  0  0  0  0  0
   28.6860   49.9490   -7.0640 C   0  0  0  0  0  0  0  0  0  0  0  0
   28.3710   51.1610   -7.6530 C   0  0  0  0  0  0  0  0  0  0  0  0
   28.6220   52.3650   -6.9540 C   0  0  0  0  0  0  0  0  0  0  0  0
   28.4160   53.7200   -7.3010 O   0  0  0  0  0  0  0  0  0  0  0  0
   29.1760   54.4390   -6.3640 C   0  0  0  0  0  0  0  0  0  0  0  0
   29.3210   53.5410   -5.2930 O   0  0  0  0  0  0  0  0  0  0  0  0
   29.1860   52.3200   -5.7130 C   0  0  0  0  0  0  0  0  0  0  0  0
   29.5060   51.0710   -5.1200 C   0  0  0  0  0  0  0  0  0  0  0  0
  2  1  1  0
  3  2  1  0
  4  3  1  0
  5  4  1  0
  6  5  1  0
  7  6  1  0
  8  7  1  0
  9  5  1  0
  9  8  1  0
 10  9  1  0
 10  2  1  0
M  END
$$$$
Mac1-UCSF-P0337_0A
     RDKit          3D

 11 11  0  0  0  0  0  0  0  0999 V2000
   34.9050   52.5550   -7.1820 C   0  0  0  0  0  0  0  0  0  0  0  0
   33.4800   52.0410   -7.0010 C   0  0  0  0  0  0  0  0  0  0  0  0
   32.4470   52.9420   -7.0560 C   0  0  0  0  0  0  0  0  0  0  0  0
   31.1500   52.5040   -6.9070 C   0  0  0  0  0  0  0  0  0  0  0  0
   30.9010   51.1650   -6.6840 C   0  0  0  0  0  0  0  0  0  0  0  0
   31.9320   50.2580   -6.6100 C   0  0  0  0  0  0  0  0  0  0  0  0
   33.2270   50.6990   -6.7720 C   0  0  0  0  0  0  0  0  0  0  0  0
   29.1830   50.6370   -6.4840 S   0  0  2  0  0  0  0  0  0  0  0  0
   29.0650   49.6760   -5.4070 O   0  0  0  0  0  0  0  0  0  0  0  0
   28.6800   49.9660   -7.6790 O   0  0  0  0  0  0  0  0  0  0  0  0
   28.2960   52.0450   -6.1850 N   0  0  0  0  0  0  0  0  0  0  0  0
  2  1  1  0
  3  2  1  0
  4  3  1  0
  5  4  1  0
  6  5  1  0
  7  6  1  0
  7  2  1  0
  8  5  1  0
  9  8  1  0
 10  8  1  0
  8 11  1  1
M  END
$$$$
Mac1-UCSF-P0338_0A
     RDKit          3D

  9  9  0  0  0  0  0  0  0  0999 V2000
   28.2230   54.1460   -7.5800 N   0  0  0  0  0  0  0  0  0  0  0  0
   28.9370   53.8340   -6.3510 C   0  0  2  0  0  0  0  0  0  0  0  0
   29.4480   54.6350   -5.6610 O   0  0  0  0  0  0  0  0  0  0  0  0
   29.0810   52.3650   -6.0540 C   0  0  0  0  0  0  0  0  0  0  0  0
   29.6030   51.8760   -4.8830 C   0  0  0  0  0  0  0  0  0  0  0  0
   29.7370   50.5870   -4.7070 N   0  0  0  0  0  0  0  0  0  0  0  0
   29.3830   49.7650   -5.6720 C   0  0  0  0  0  0  0  0  0  0  0  0
   28.8730   50.2410   -6.8540 C   0  0  0  0  0  0  0  0  0  0  0  0
   28.7300   51.5370   -7.0070 N   0  0  0  0  0  0  0  0  0  0  0  0
  2  1  1  6
  3  2  1  0
  4  2  1  0
  5  4  1  0
  6  5  1  0
  7  6  1  0
  8  7  1  0
  9  8  1  0
  9  4  1  0
M  END
$$$$
Mac1-UCSF-P0338_1A
     RDKit          3D

  9  9  0  0  0  0  0  0  0  0999 V2000
   27.7800   52.0820   -9.0950 N   0  0  0  0  0  0  0  0  0  0  0  0
   28.2370   52.6620   -7.8620 C   0  0  0  0  0  0  0  0  0  0  0  0
   28.1800   53.8180   -7.6910 O   0  0  0  0  0  0  0  0  0  0  0  0
   28.7770   51.7520   -6.7790 C   0  0  0  0  0  0  0  0  0  0  0  0
   29.2090   52.2920   -5.5740 C   0  0  0  0  0  0  0  0  0  0  0  0
   29.6850   51.5070   -4.6290 N   0  0  0  0  0  0  0  0  0  0  0  0
   29.7650   50.2240   -4.8360 C   0  0  0  0  0  0  0  0  0  0  0  0
   29.3610   49.6850   -6.0340 C   0  0  0  0  0  0  0  0  0  0  0  0
   28.8730   50.4480   -6.9750 N   0  0  0  0  0  0  0  0  0  0  0  0
  2  1  1  0
  3  2  1  0
  4  2  1  0
  5  4  1  0
  6  5  1  0
  7  6  1  0
  8  7  1  0
  9  8  1  0
  9  4  1  0
M  END
$$$$
Mac1-UCSF-P0341_0A
     RDKit          3D

 12 13  0  0  0  0  0  0  0  0999 V2000
   28.0730   54.9170   -8.2270 N   0  0  0  0  0  0  0  0  0  0  0  0
   28.4000   53.7570   -7.4710 C   0  0  0  0  0  0  0  0  0  0  0  0
   28.2340   52.4920   -8.1090 N   0  0  0  0  0  0  0  0  0  0  0  0
   28.5880   51.2330   -7.3570 C   0  0  0  0  0  0  0  0  0  0  0  0
   28.4480   50.0010   -7.9650 C   0  0  0  0  0  0  0  0  0  0  0  0
   28.7800   48.8560   -7.2870 C   0  0  0  0  0  0  0  0  0  0  0  0
   29.2610   48.9020   -5.9950 C   0  0  0  0  0  0  0  0  0  0  0  0
   29.4100   50.1390   -5.3990 C   0  0  0  0  0  0  0  0  0  0  0  0
   29.0500   51.2800   -6.0680 C   0  0  1  0  0  0  0  0  0  0  0  0
   29.2280   52.6210   -5.4320 C   0  0  0  0  0  0  0  0  0  0  0  0
   29.6680   52.6310   -4.3340 O   0  0  0  0  0  0  0  0  0  0  0  0
   28.8940   53.8230   -6.1380 N   0  0  0  0  0  0  0  0  0  0  0  0
  2  1  1  0
  3  2  1  0
  4  3  1  0
  5  4  1  0
  6  5  1  0
  7  6  1  0
  8  7  1  0
  9  4  1  0
  9  8  1  6
 10  9  1  0
 11 10  1  0
 12  2  1  0
 12 10  1  0
M  END
$$$$
Mac1-UCSF-P0343_0B
     RDKit          3D

 12 13  0  0  0  0  0  0  0  0999 V2000
    3.5090   46.2470   -2.0850 C   0  0  0  0  0  0  0  0  0  0  0  0
    4.9380   46.4020   -2.1210 C   0  0  0  0  0  0  0  0  0  0  0  0
    5.5600   46.0710   -3.4890 C   0  0  0  0  0  0  0  0  0  0  0  0
    4.8140   46.4510   -4.6620 N   0  0  0  0  0  0  0  0  0  0  0  0
    3.3970   46.2620   -4.5360 C   0  0  0  0  0  0  0  0  0  0  0  0
    2.8470   46.8220   -3.2220 C   0  0  0  0  0  0  0  0  0  0  0  0
    5.3120   46.0360   -5.7100 C   0  0  2  0  0  0  0  0  0  0  0  0
    5.5930   47.3390   -6.3550 C   0  0  0  0  0  0  0  0  0  0  0  0
    6.1840   47.1980   -7.7550 C   0  0  0  0  0  0  0  0  0  0  0  0
    5.5190   46.1700   -8.5910 N   0  0  0  0  0  0  0  0  0  0  0  0
    5.3200   44.8720   -7.9210 C   0  0  0  0  0  0  0  0  0  0  0  0
    4.5660   45.1130   -6.6050 C   0  0  0  0  0  0  0  0  0  0  0  0
  2  1  1  0
  3  2  1  0
  4  3  1  0
  5  4  1  0
  6  5  1  0
  6  1  1  0
  7  4  1  1
  8  7  1  0
  9  8  1  0
 10  9  1  0
 11 10  1  0
 12 11  1  0
 12  7  1  0
M  END
$$$$
Mac1-UCSF-P0344_0A
     RDKit          3D

 12 12  0  0  0  0  0  0  0  0999 V2000
   31.3320   44.3280   -5.9300 O   0  0  0  0  0  0  0  0  0  0  0  0
   31.7360   45.1040   -6.8240 C   0  0  0  0  0  0  0  0  0  0  0  0
   31.0340   45.2440   -7.8430 O   0  0  0  0  0  0  0  0  0  0  0  0
   33.0570   45.8640   -6.5990 C   0  0  0  0  0  0  0  0  0  0  0  0
   33.5880   46.5280   -7.4070 O   0  0  0  0  0  0  0  0  0  0  0  0
   33.6780   45.7080   -5.3210 N   0  0  0  0  0  0  0  0  0  0  0  0
   34.8980   46.3810   -4.9610 C   0  0  1  0  0  0  0  0  0  0  0  0
   35.0550   47.7470   -5.1650 C   0  0  0  0  0  0  0  0  0  0  0  0
   36.1980   48.4060   -4.7630 C   0  0  0  0  0  0  0  0  0  0  0  0
   37.2160   47.7130   -4.1350 C   0  0  0  0  0  0  0  0  0  0  0  0
   37.0710   46.3730   -3.9400 C   0  0  0  0  0  0  0  0  0  0  0  0
   35.9140   45.7090   -4.3290 C   0  0  0  0  0  0  0  0  0  0  0  0
  2  1  1  0
  3  2  1  0
  4  2  1  0
  5  4  1  0
  6  4  1  0
  7  6  1  1
  8  7  1  0
  9  8  1  0
 10  9  1  0
 11 10  1  0
 12 11  1  0
 12  7  1  0
M  CHG  1   1  -1
M  END
$$$$
Mac1-UCSF-P0345_0A
     RDKit          3D

  9  9  0  0  0  0  0  0  0  0999 V2000
   29.0440   54.8380   -6.5470 C   0  0  0  0  0  0  0  0  0  0  0  0
   28.9520   53.3580   -6.1910 C   0  0  0  0  0  0  0  0  0  0  0  0
   29.3980   52.9400   -5.0310 N   0  0  0  0  0  0  0  0  0  0  0  0
   29.3450   51.6740   -4.6950 C   0  0  0  0  0  0  0  0  0  0  0  0
   29.8180   51.2400   -3.4060 N   0  0  0  0  0  0  0  0  0  0  0  0
   28.8340   50.7340   -5.5620 C   0  0  0  0  0  0  0  0  0  0  0  0
   28.3340   51.1310   -6.7760 C   0  0  0  0  0  0  0  0  0  0  0  0
   28.4110   52.4710   -7.1160 C   0  0  0  0  0  0  0  0  0  0  0  0
   27.7210   53.0310   -8.8200 Br  0  0  0  0  0  0  0  0  0  0  0  0
  2  1  1  0
  3  2  1  0
  4  3  1  0
  5  4  1  0
  6  4  1  0
  7  6  1  0
  8  7  1  0
  8  2  1  0
  9  8  1  0
M  END
$$$$
Mac1-UCSF-P0346_0A
     RDKit          3D

 11 11  0  0  0  0  0  0  0  0999 V2000
   28.9410   54.9320   -7.0390 O   0  0  0  0  0  0  0  0  0  0  0  0
   29.3730   54.6420   -5.8960 N   0  0  0  0  0  0  0  0  0  0  0  0
   29.2970   53.3180   -5.5150 C   0  0  0  0  0  0  0  0  0  0  0  0
   29.7090   53.1740   -4.4240 O   0  0  0  0  0  0  0  0  0  0  0  0
   28.7490   52.2390   -6.4660 C   0  0  0  0  0  0  0  0  0  0  0  0
   28.1220   52.4520   -7.6850 C   0  0  0  0  0  0  0  0  0  0  0  0
   27.7010   51.3360   -8.4270 C   0  0  0  0  0  0  0  0  0  0  0  0
   27.9470   50.0220   -7.9300 C   0  0  0  0  0  0  0  0  0  0  0  0
   28.5560   49.8380   -6.7660 C   0  0  0  0  0  0  0  0  0  0  0  0
   28.9660   50.9500   -6.0210 C   0  0  0  0  0  0  0  0  0  0  0  0
   29.6330   50.7630   -4.7500 O   0  0  0  0  0  0  0  0  0  0  0  0
  2  1  1  0
  3  2  1  0
  4  3  1  0
  5  3  1  0
  6  5  1  0
  7  6  1  0
  8  7  1  0
  9  8  1  0
 10  9  1  0
 10  5  1  0
 11 10  1  0
M  END
$$$$
Mac1-UCSF-P0347_0A
     RDKit          3D

 15 16  0  0  0  0  0  0  0  0999 V2000
   30.1560   44.9800   -6.4150 O   0  0  0  0  0  0  0  0  0  0  0  0
   30.1490   46.0830   -6.9880 C   0  0  0  0  0  0  0  0  0  0  0  0
   30.3290   46.1210   -8.2360 O   0  0  0  0  0  0  0  0  0  0  0  0
   29.9830   47.3780   -6.2070 C   0  0  1  0  0  0  0  0  0  0  0  0
   30.2410   47.4170   -4.8580 C   0  0  0  0  0  0  0  0  0  0  0  0
   30.1500   48.5440   -4.1620 N   0  0  0  0  0  0  0  0  0  0  0  0
   29.8220   49.6720   -4.7600 C   0  0  0  0  0  0  0  0  0  0  0  0
   29.5540   49.7270   -6.1300 C   0  0  0  0  0  0  0  0  0  0  0  0
   29.6270   48.5520   -6.8680 C   0  0  0  0  0  0  0  0  0  0  0  0
   29.1710   51.0720   -6.8000 C   0  0  2  0  0  0  0  0  0  0  0  0
   28.2080   51.1150   -7.7710 C   0  0  0  0  0  0  0  0  0  0  0  0
   27.8890   52.3340   -8.3610 C   0  0  0  0  0  0  0  0  0  0  0  0
   28.5870   53.4870   -8.0250 C   0  0  0  0  0  0  0  0  0  0  0  0
   29.5910   53.4460   -7.0910 C   0  0  0  0  0  0  0  0  0  0  0  0
   29.8820   52.2480   -6.4810 C   0  0  0  0  0  0  0  0  0  0  0  0
  2  1  1  0
  3  2  1  0
  4  2  1  6
  5  4  1  0
  6  5  1  0
  7  6  1  0
  8  7  1  0
  9  4  1  0
  9  8  1  0
 10  8  1  6
 11 10  1  0
 12 11  1  0
 13 12  1  0
 14 13  1  0
 15 14  1  0
 15 10  1  0
M  CHG  1   1  -1
M  END
$$$$
Mac1-UCSF-P0348_0A
     RDKit          3D

 15 16  0  0  0  0  0  0  0  0999 V2000
   27.3320   44.3570   -2.4990 C   0  0  0  0  0  0  0  0  0  0  0  0
   28.2820   45.2800   -3.0250 N   0  0  0  0  0  0  0  0  0  0  0  0
   28.6700   44.9830   -4.2030 C   0  0  0  0  0  0  0  0  0  0  0  0
   29.5290   45.9140   -4.6710 C   0  0  0  0  0  0  0  0  0  0  0  0
   30.0850   45.8630   -6.1000 C   0  0  0  0  0  0  0  0  0  0  0  0
   31.5540   45.6900   -6.2620 C   0  0  0  0  0  0  0  0  0  0  0  0
   31.8770   46.0090   -7.6950 C   0  0  2  0  0  0  0  0  0  0  0  0
   31.1150   45.8130   -8.6290 O   0  0  0  0  0  0  0  0  0  0  0  0
   33.0140   46.3990   -7.8460 O   0  0  0  0  0  0  0  0  0  0  0  0
   29.7100   46.8360   -3.6360 C   0  0  0  0  0  0  0  0  0  0  0  0
   30.4610   47.9960   -3.4720 C   0  0  0  0  0  0  0  0  0  0  0  0
   30.4120   48.7840   -2.3350 C   0  0  0  0  0  0  0  0  0  0  0  0
   29.5860   48.3470   -1.2480 C   0  0  0  0  0  0  0  0  0  0  0  0
   28.8780   47.1300   -1.3810 C   0  0  0  0  0  0  0  0  0  0  0  0
   28.8920   46.4100   -2.6090 C   0  0  2  0  0  0  0  0  0  0  0  0
  2  1  1  0
  3  2  1  0
  4  3  1  0
  5  4  1  0
  6  5  1  0
  7  6  1  0
  7  8  1  6
  9  7  1  0
 10  4  1  0
 11 10  1  0
 12 11  1  0
 13 12  1  0
 14 13  1  0
 15 14  1  1
 15 10  1  0
 15  2  1  0
M  CHG  1   9  -1
M  END
$$$$
Mac1-UCSF-P0354_0A
     RDKit          3D

 15 16  0  0  0  0  0  0  0  0999 V2000
   35.1350   43.8950   -3.2920 C   0  0  0  0  0  0  0  0  0  0  0  0
   34.2540   44.0530   -4.4370 N   0  0  0  0  0  0  0  0  0  0  0  0
   33.3230   43.1790   -4.7610 N   0  0  0  0  0  0  0  0  0  0  0  0
   32.7150   43.5850   -5.8410 C   0  0  0  0  0  0  0  0  0  0  0  0
   33.3130   44.8000   -6.2460 C   0  0  0  0  0  0  0  0  0  0  0  0
   32.9500   45.6350   -7.4710 C   0  0  0  0  0  0  0  0  0  0  0  0
   31.8340   45.4880   -8.0280 O   0  0  0  0  0  0  0  0  0  0  0  0
   33.7660   46.4530   -7.9550 O   0  0  0  0  0  0  0  0  0  0  0  0
   34.3140   45.0530   -5.2880 C   0  0  0  0  0  0  0  0  0  0  0  0
   35.2890   46.2280   -5.2290 C   0  0  0  0  0  0  0  0  0  0  0  0
   36.6610   46.0150   -5.2560 C   0  0  0  0  0  0  0  0  0  0  0  0
   37.5300   47.0900   -5.1820 C   0  0  0  0  0  0  0  0  0  0  0  0
   37.0330   48.3690   -5.0700 C   0  0  0  0  0  0  0  0  0  0  0  0
   35.6790   48.5850   -5.0260 C   0  0  0  0  0  0  0  0  0  0  0  0
   34.8130   47.5150   -5.1010 C   0  0  0  0  0  0  0  0  0  0  0  0
  2  1  1  0
  3  2  1  0
  4  3  1  0
  5  4  1  0
  6  5  1  0
  7  6  1  0
  8  6  1  0
  9  5  1  0
  9  2  1  0
 10  9  1  0
 11 10  1  0
 12 11  1  0
 13 12  1  0
 14 13  1  0
 15 14  1  0
 15 10  1  0
M  CHG  1   8  -1
M  END
$$$$
Mac1-UCSF-P0357_0A
     RDKit          3D

 11 11  0  0  0  0  0  0  0  0999 V2000
   28.4020   47.3910   -9.1320 C   0  0  0  0  0  0  0  0  0  0  0  0
   28.6220   48.4720   -8.0750 C   0  0  0  0  0  0  0  0  0  0  0  0
   28.1780   49.7680   -8.2430 C   0  0  0  0  0  0  0  0  0  0  0  0
   27.5110   50.1770   -9.3960 O   0  0  0  0  0  0  0  0  0  0  0  0
   28.3610   50.7200   -7.2540 C   0  0  0  0  0  0  0  0  0  0  0  0
   29.0100   50.4060   -6.0970 C   0  0  0  0  0  0  0  0  0  0  0  0
   29.4470   49.1230   -5.9250 C   0  0  0  0  0  0  0  0  0  0  0  0
   29.2830   48.1780   -6.9020 C   0  0  0  0  0  0  0  0  0  0  0  0
   29.8510   46.8220   -6.5550 C   0  0  1  0  0  0  0  0  0  0  0  0
   30.8300   46.3810   -7.2200 O   0  0  0  0  0  0  0  0  0  0  0  0
   29.3290   46.2190   -5.5440 O   0  0  0  0  0  0  0  0  0  0  0  0
  2  1  1  0
  3  2  1  0
  4  3  1  0
  5  3  1  0
  6  5  1  0
  7  6  1  0
  8  2  1  0
  8  7  1  0
  9  8  1  0
  9 10  1  1
 11  9  1  0
M  CHG  1  11  -1
M  END
$$$$
Mac1-UCSF-P0357_1A
     RDKit          3D

 11 11  0  0  0  0  0  0  0  0999 V2000
   31.8200   43.7100   -6.2600 C   0  0  0  0  0  0  0  0  0  0  0  0
   32.6510   44.9270   -5.8420 C   0  0  0  0  0  0  0  0  0  0  0  0
   33.7530   44.7290   -5.0420 C   0  0  0  0  0  0  0  0  0  0  0  0
   34.0540   43.4370   -4.6320 O   0  0  0  0  0  0  0  0  0  0  0  0
   34.5320   45.7710   -4.6040 C   0  0  0  0  0  0  0  0  0  0  0  0
   34.2150   47.0410   -5.0340 C   0  0  0  0  0  0  0  0  0  0  0  0
   33.1010   47.2360   -5.8610 C   0  0  0  0  0  0  0  0  0  0  0  0
   32.3070   46.1930   -6.2700 C   0  0  0  0  0  0  0  0  0  0  0  0
   31.0590   46.4370   -7.1560 C   0  0  0  0  0  0  0  0  0  0  0  0
   30.0860   47.0670   -6.7140 O   0  0  0  0  0  0  0  0  0  0  0  0
   30.9370   46.0110   -8.3020 O   0  0  0  0  0  0  0  0  0  0  0  0
  2  1  1  0
  3  2  1  0
  4  3  1  0
  5  3  1  0
  6  5  1  0
  7  6  1  0
  8  2  1  0
  8  7  1  0
  9  8  1  0
 10  9  1  0
 11  9  1  0
M  CHG  1  11  -1
M  END
$$$$
Mac1-UCSF-P0358_0A
     RDKit          3D

 11 11  0  0  0  0  0  0  0  0999 V2000
   31.1370   45.6530   -8.2600 O   0  0  0  0  0  0  0  0  0  0  0  0
   32.0070   45.8050   -7.4400 C   0  0  0  0  0  0  0  0  0  0  0  0
   33.0180   46.4140   -7.7340 O   0  0  0  0  0  0  0  0  0  0  0  0
   31.9440   45.2360   -6.0460 C   0  0  0  0  0  0  0  0  0  0  0  0
   31.8060   46.2960   -4.9780 C   0  0  0  0  0  0  0  0  0  0  0  0
   30.6580   46.3560   -4.2370 C   0  0  0  0  0  0  0  0  0  0  0  0
   30.5290   47.3010   -3.2450 C   0  0  0  0  0  0  0  0  0  0  0  0
   31.5560   48.1930   -2.9960 C   0  0  0  0  0  0  0  0  0  0  0  0
   32.6860   48.1350   -3.7660 C   0  0  0  0  0  0  0  0  0  0  0  0
   32.8060   47.1770   -4.7550 C   0  0  0  0  0  0  0  0  0  0  0  0
   33.9750   47.0850   -5.5190 O   0  0  0  0  0  0  0  0  0  0  0  0
  2  1  1  0
  3  2  1  0
  4  2  1  0
  5  4  1  0
  6  5  1  0
  7  6  1  0
  8  7  1  0
  9  8  1  0
 10  9  1  0
 10  5  1  0
 11 10  1  0
M  CHG  1   1  -1
M  END
$$$$
Mac1-UCSF-P0360_0A
     RDKit          3D

 12 12  0  0  0  0  0  0  0  0999 V2000
   31.3370   55.4730   -8.6000 Cl  0  0  0  0  0  0  0  0  0  0  0  0
   34.5930   51.5320   -6.9140 Cl  0  0  0  0  0  0  0  0  0  0  0  0
   29.6600   49.2500   -6.1520 N   0  0  0  0  0  0  0  0  0  0  0  0
   29.2130   50.7070   -6.8810 S   0  0  2  0  0  0  0  0  0  0  0  0
   28.4050   51.5460   -6.0150 O   0  0  0  0  0  0  0  0  0  0  0  0
   28.4170   50.5530   -8.0980 O   0  0  0  0  0  0  0  0  0  0  0  0
   30.6550   51.7480   -7.2150 C   0  0  0  0  0  0  0  0  0  0  0  0
   30.4500   53.0310   -7.7060 C   0  0  0  0  0  0  0  0  0  0  0  0
   31.5440   53.8410   -7.9560 C   0  0  0  0  0  0  0  0  0  0  0  0
   32.8040   53.3800   -7.6880 C   0  0  0  0  0  0  0  0  0  0  0  0
   32.9660   52.1120   -7.2010 C   0  0  0  0  0  0  0  0  0  0  0  0
   31.9070   51.2810   -6.9460 C   0  0  0  0  0  0  0  0  0  0  0  0
  4  3  1  1
  5  4  1  0
  6  4  1  0
  7  4  1  0
  8  7  1  0
  9  8  1  0
  9  1  1  0
 10  9  1  0
 11 10  1  0
 11  2  1  0
 12  7  1  0
 12 11  1  0
M  END
$$$$
Mac1-UCSF-P0361_0A
     RDKit          3D

 10 10  0  0  0  0  0  0  0  0999 V2000
   28.1450   53.8390   -7.7420 N   0  0  0  0  0  0  0  0  0  0  0  0
   28.8690   53.6090   -6.5210 C   0  0  0  0  0  0  0  0  0  0  0  0
   29.2710   54.5390   -5.9300 O   0  0  0  0  0  0  0  0  0  0  0  0
   29.1220   52.1760   -6.0310 C   0  0  0  0  0  0  0  0  0  0  0  0
   29.4570   51.8800   -4.7300 C   0  0  0  0  0  0  0  0  0  0  0  0
   29.7150   50.5520   -4.3630 C   0  0  0  0  0  0  0  0  0  0  0  0
   29.5940   49.5410   -5.3020 C   0  0  0  0  0  0  0  0  0  0  0  0
   29.8220   48.2080   -4.9380 O   0  0  0  0  0  0  0  0  0  0  0  0
   29.2630   49.8420   -6.6150 C   0  0  0  0  0  0  0  0  0  0  0  0
   29.0350   51.1530   -6.9500 C   0  0  0  0  0  0  0  0  0  0  0  0
  2  1  1  0
  3  2  1  0
  4  2  1  0
  5  4  1  0
  6  5  1  0
  7  6  1  0
  8  7  1  0
  9  7  1  0
 10  9  1  0
 10  4  1  0
M  END
$$$$
Mac1-UCSF-P0365_0A
     RDKit          3D

 11 11  0  0  0  0  0  0  0  0999 V2000
   28.0130   53.7740   -7.6330 O   0  0  0  0  0  0  0  0  0  0  0  0
   28.5400   53.3850   -6.5410 C   0  0  2  0  0  0  0  0  0  0  0  0
   28.9740   54.0820   -5.5980 O   0  0  0  0  0  0  0  0  0  0  0  0
   28.7940   51.9530   -6.3400 C   0  0  0  0  0  0  0  0  0  0  0  0
   28.5440   51.0610   -7.3590 C   0  0  0  0  0  0  0  0  0  0  0  0
   28.8390   49.7540   -7.1260 C   0  0  0  0  0  0  0  0  0  0  0  0
   29.3760   49.3210   -5.9330 C   0  0  0  0  0  0  0  0  0  0  0  0
   29.6940   47.9680   -5.6990 O   0  0  0  0  0  0  0  0  0  0  0  0
   29.6230   50.1870   -4.9240 C   0  0  0  0  0  0  0  0  0  0  0  0
   29.3340   51.5270   -5.1250 C   0  0  0  0  0  0  0  0  0  0  0  0
   30.1280   49.6620   -3.7530 F   0  0  0  0  0  0  0  0  0  0  0  0
  2  1  1  6
  3  2  1  0
  4  2  1  0
  5  4  1  0
  6  5  1  0
  7  6  1  0
  8  7  1  0
  9  7  1  0
 10  4  1  0
 10  9  1  0
 11  9  1  0
M  CHG  1   1  -1
M  END
$$$$
Mac1-UCSF-P0365_1A
     RDKit          3D

 11 11  0  0  0  0  0  0  0  0999 V2000
   29.2810   47.4800   -7.0660 O   0  0  0  0  0  0  0  0  0  0  0  0
   29.5330   48.2630   -6.1350 C   0  0  1  0  0  0  0  0  0  0  0  0
   30.1610   47.8350   -5.1850 O   0  0  0  0  0  0  0  0  0  0  0  0
   29.2320   49.7610   -6.1850 C   0  0  0  0  0  0  0  0  0  0  0  0
   28.7210   50.4170   -7.2750 C   0  0  0  0  0  0  0  0  0  0  0  0
   28.5330   51.8090   -7.2240 C   0  0  0  0  0  0  0  0  0  0  0  0
   28.8490   52.5030   -6.0620 C   0  0  0  0  0  0  0  0  0  0  0  0
   28.7240   53.8690   -5.8780 O   0  0  0  0  0  0  0  0  0  0  0  0
   29.3310   51.8050   -4.9940 C   0  0  0  0  0  0  0  0  0  0  0  0
   29.5270   50.4520   -5.0590 C   0  0  0  0  0  0  0  0  0  0  0  0
   29.6000   52.4600   -3.8410 F   0  0  0  0  0  0  0  0  0  0  0  0
  2  1  1  6
  3  2  1  0
  4  2  1  0
  5  4  1  0
  6  5  1  0
  7  6  1  0
  8  7  1  0
  9  7  1  0
 10  4  1  0
 10  9  1  0
 11  9  1  0
M  CHG  1   1  -1
M  END
$$$$
Mac1-UCSF-P0371_0A
     RDKit          3D

 12 12  0  0  0  0  0  0  0  0999 V2000
   32.0340   43.1960   -6.7980 Cl  0  0  0  0  0  0  0  0  0  0  0  0
   31.0440   48.1620   -4.7680 Cl  0  0  0  0  0  0  0  0  0  0  0  0
   31.7010   46.5840   -8.3790 O   0  0  0  0  0  0  0  0  0  0  0  0
   32.7540   46.6020   -7.7100 C   0  0  0  0  0  0  0  0  0  0  0  0
   33.8500   47.0020   -8.2080 O   0  0  0  0  0  0  0  0  0  0  0  0
   32.7380   46.1450   -6.2490 C   0  0  0  0  0  0  0  0  0  0  0  0
   31.3990   45.6310   -5.7050 C   0  0  0  0  0  0  0  0  0  0  0  0
   30.9990   44.3150   -5.8920 C   0  0  0  0  0  0  0  0  0  0  0  0
   29.7990   43.8730   -5.4160 C   0  0  0  0  0  0  0  0  0  0  0  0
   29.0040   44.7330   -4.7000 C   0  0  0  0  0  0  0  0  0  0  0  0
   29.3820   46.0340   -4.5000 C   0  0  0  0  0  0  0  0  0  0  0  0
   30.5720   46.4770   -5.0070 C   0  0  0  0  0  0  0  0  0  0  0  0
  4  3  1  0
  5  4  1  0
  6  4  1  0
  7  6  1  0
  8  1  1  0
  8  7  1  0
  9  8  1  0
 10  9  1  0
 11 10  1  0
 12  7  1  0
 12 11  1  0
 12  2  1  0
M  CHG  1   3  -1
M  END
$$$$
Mac1-UCSF-P0371_0B
     RDKit          3D

 12 12  0  0  0  0  0  0  0  0999 V2000
   20.9550   48.0520   12.7810 Cl  0  0  0  0  0  0  0  0  0  0  0  0
   22.1450   46.1050    8.1340 Cl  0  0  0  0  0  0  0  0  0  0  0  0
   23.8230   45.4790   10.6090 O   0  0  0  0  0  0  0  0  0  0  0  0
   22.6870   44.9920   10.9330 C   0  0  0  0  0  0  0  0  0  0  0  0
   22.5360   43.7440   11.1990 O   0  0  0  0  0  0  0  0  0  0  0  0
   21.4710   45.9300   11.0470 C   0  0  0  0  0  0  0  0  0  0  0  0
   21.5180   47.3080   10.3670 C   0  0  0  0  0  0  0  0  0  0  0  0
   21.2710   48.4060   11.1050 C   0  0  0  0  0  0  0  0  0  0  0  0
   21.2760   49.6730   10.6040 C   0  0  0  0  0  0  0  0  0  0  0  0
   21.5340   49.8610    9.2660 C   0  0  0  0  0  0  0  0  0  0  0  0
   21.8250   48.7670    8.4910 C   0  0  0  0  0  0  0  0  0  0  0  0
   21.7900   47.5170    9.0680 C   0  0  0  0  0  0  0  0  0  0  0  0
  4  3  1  0
  5  4  1  0
  6  4  1  0
  7  6  1  0
  8  7  1  0
  8  1  1  0
  9  8  1  0
 10  9  1  0
 11 10  1  0
 12  7  1  0
 12 11  1  0
 12  2  1  0
M  CHG  1   3  -1
M  END
$$$$
Mac1-UCSF-P0373_0A
     RDKit          3D

 16 17  0  0  0  0  0  0  0  0999 V2000
   30.7920   46.7280   -8.1360 O   0  0  0  0  0  0  0  0  0  0  0  0
   29.9600   46.7310   -7.1770 C   0  0  0  0  0  0  0  0  0  0  0  0
   28.9990   45.9440   -7.2240 O   0  0  0  0  0  0  0  0  0  0  0  0
   30.1020   47.6950   -5.9860 C   0  0  1  0  0  0  0  0  0  0  0  0
   31.6000   47.8720   -5.6880 C   0  0  1  0  0  0  0  0  0  0  0  0
   32.2930   46.8510   -5.0610 C   0  0  0  0  0  0  0  0  0  0  0  0
   33.6540   46.9780   -4.8050 C   0  0  0  0  0  0  0  0  0  0  0  0
   34.3360   48.1210   -5.1980 C   0  0  0  0  0  0  0  0  0  0  0  0
   33.6500   49.1450   -5.8210 C   0  0  0  0  0  0  0  0  0  0  0  0
   32.2930   49.0040   -6.0800 C   0  0  0  0  0  0  0  0  0  0  0  0
   29.3710   49.0260   -6.2270 C   0  0  0  0  0  0  0  0  0  0  0  0
   29.1560   49.8910   -5.1660 C   0  0  0  0  0  0  0  0  0  0  0  0
   28.4920   51.0890   -5.3360 C   0  0  0  0  0  0  0  0  0  0  0  0
   28.0550   51.4360   -6.5920 C   0  0  0  0  0  0  0  0  0  0  0  0
   28.2720   50.5790   -7.6610 C   0  0  0  0  0  0  0  0  0  0  0  0
   28.9180   49.3700   -7.4840 C   0  0  0  0  0  0  0  0  0  0  0  0
  2  1  1  0
  3  2  1  0
  4  2  1  6
  5  4  1  0
  5  6  1  6
  7  6  1  0
  8  7  1  0
  9  8  1  0
 10  5  1  0
 10  9  1  0
 11  4  1  0
 12 11  1  0
 13 12  1  0
 14 13  1  0
 15 14  1  0
 16 11  1  0
 16 15  1  0
M  CHG  1   1  -1
M  END
$$$$
Mac1-UCSF-P0375_0A
     RDKit          3D

 11 11  0  0  0  0  0  0  0  0999 V2000
   31.4050   45.4640   -7.8820 O   0  0  0  0  0  0  0  0  0  0  0  0
   32.4730   45.4170   -7.2880 C   0  0  0  0  0  0  0  0  0  0  0  0
   33.5370   45.6130   -7.9050 O   0  0  0  0  0  0  0  0  0  0  0  0
   32.5190   45.1330   -5.7960 C   0  0  0  0  0  0  0  0  0  0  0  0
   33.8490   44.9010   -5.3310 O   0  0  0  0  0  0  0  0  0  0  0  0
   34.6530   46.0310   -5.1480 C   0  0  0  0  0  0  0  0  0  0  0  0
   34.1770   47.3180   -5.0740 C   0  0  0  0  0  0  0  0  0  0  0  0
   35.0470   48.3960   -4.8660 C   0  0  0  0  0  0  0  0  0  0  0  0
   36.3710   48.1780   -4.6950 C   0  0  0  0  0  0  0  0  0  0  0  0
   36.8360   46.9150   -4.7910 C   0  0  0  0  0  0  0  0  0  0  0  0
   35.9820   45.8480   -5.0160 C   0  0  0  0  0  0  0  0  0  0  0  0
  2  1  1  0
  3  2  1  0
  4  2  1  0
  5  4  1  0
  6  5  1  0
  7  6  1  0
  8  7  1  0
  9  8  1  0
 10  9  1  0
 11 10  1  0
 11  6  1  0
M  CHG  1   1  -1
M  END
$$$$
Mac1-UCSF-P0378_0B
     RDKit          3D

 10 10  0  0  0  0  0  0  0  0999 V2000
   30.7510   25.7920   -0.4470 O   0  0  0  0  0  0  0  0  0  0  0  0
   29.8520   26.1070   -1.4850 C   0  0  0  0  0  0  0  0  0  0  0  0
   29.7690   25.3450   -2.6350 C   0  0  0  0  0  0  0  0  0  0  0  0
   28.8810   25.6980   -3.6380 C   0  0  0  0  0  0  0  0  0  0  0  0
   28.0500   26.7900   -3.5050 C   0  0  0  0  0  0  0  0  0  0  0  0
   27.0650   27.1830   -4.6090 C   0  0  0  0  0  0  0  0  0  0  0  0
   26.3450   27.4500   -5.4120 N   0  0  0  0  0  0  0  0  0  0  0  0
   28.1420   27.5290   -2.3520 C   0  0  0  0  0  0  0  0  0  0  0  0
   29.0260   27.1890   -1.3580 C   0  0  0  0  0  0  0  0  0  0  0  0
   27.3490   28.6190   -2.1680 F   0  0  0  0  0  0  0  0  0  0  0  0
  2  1  1  0
  3  2  1  0
  4  3  1  0
  5  4  1  0
  6  5  1  0
  7  6  1  0
  8  5  1  0
  9  2  1  0
  9  8  1  0
 10  8  1  0
M  END
$$$$
Mac1-UCSF-P0379_0A
     RDKit          3D

  9  9  0  0  0  0  0  0  0  0999 V2000
   28.5900   52.5410   -6.6250 C   0  0  0  0  0  0  0  0  0  0  0  0
   28.9500   51.1400   -6.1830 C   0  0  2  0  0  0  0  0  0  0  0  0
   29.5080   50.8990   -5.0280 N   0  0  0  0  0  0  0  0  0  0  0  0
   29.7950   49.6200   -4.7720 C   0  0  0  0  0  0  0  0  0  0  0  0
   29.4850   48.7330   -5.7930 C   0  0  2  0  0  0  0  0  0  0  0  0
   28.7880   49.6940   -7.0370 S   0  0  0  0  0  0  0  0  0  0  0  0
   29.7340   47.2370   -5.6490 C   0  0  0  0  0  0  0  0  0  0  0  0
   30.4550   46.8400   -4.7030 O   0  0  0  0  0  0  0  0  0  0  0  0
   29.2010   46.4180   -6.4320 O   0  0  0  0  0  0  0  0  0  0  0  0
  2  1  1  6
  3  2  1  0
  4  3  1  0
  5  4  1  0
  6  5  1  0
  6  2  1  0
  5  7  1  1
  8  7  1  0
  9  7  1  0
M  CHG  1   9  -1
M  END
$$$$
Mac1-UCSF-P0380_0A
     RDKit          3D

 14 15  0  0  0  0  0  0  0  0999 V2000
   29.8400   47.8240   -5.8880 O   0  0  0  0  0  0  0  0  0  0  0  0
   29.7210   48.9150   -5.2820 C   0  0  0  0  0  0  0  0  0  0  0  0
   30.0090   49.0220   -4.0860 O   0  0  0  0  0  0  0  0  0  0  0  0
   29.2430   50.1390   -6.0060 C   0  0  0  0  0  0  0  0  0  0  0  0
   28.6840   49.9630   -7.2800 C   0  0  0  0  0  0  0  0  0  0  0  0
   28.2520   51.0720   -7.9760 C   0  0  0  0  0  0  0  0  0  0  0  0
   28.3780   52.3370   -7.4010 C   0  0  0  0  0  0  0  0  0  0  0  0
   27.8720   53.5590   -8.2390 N   0  0  0  0  0  0  0  0  0  0  0  0
   28.4340   54.9450   -8.0310 C   0  0  0  0  0  0  0  0  0  0  0  0
   28.0560   55.8390   -8.6690 O   0  0  0  0  0  0  0  0  0  0  0  0
   29.5060   54.9760   -6.9550 C   0  0  0  0  0  0  0  0  0  0  0  0
   29.0490   54.1560   -5.5230 S   0  0  0  0  0  0  0  0  0  0  0  0
   28.9190   52.5260   -6.1440 C   0  0  0  0  0  0  0  0  0  0  0  0
   29.3650   51.4040   -5.4360 C   0  0  0  0  0  0  0  0  0  0  0  0
  2  1  1  0
  3  2  1  0
  4  2  1  0
  5  4  1  0
  6  5  1  0
  7  6  1  0
  8  7  1  0
  9  8  1  0
 10  9  1  0
 11  9  1  0
 12 11  1  0
 13 12  1  0
 13  7  1  0
 14 13  1  0
 14  4  1  0
M  CHG  1   1  -1
M  END
$$$$
Mac1-UCSF-P0381_0B
     RDKit          3D

 13 14  0  0  0  0  0  0  0  0999 V2000
   28.9980   56.3510   -9.9220 N   0  0  0  0  0  0  0  0  0  0  0  0
   27.7430   56.3590   -9.2340 C   0  0  0  0  0  0  0  0  0  0  0  0
   26.7850   55.5540   -9.5980 N   0  0  0  0  0  0  0  0  0  0  0  0
   27.4980   57.3640   -8.0410 C   0  0  0  0  0  0  0  0  0  0  0  0
   27.4260   58.7500   -8.3990 C   0  0  0  0  0  0  0  0  0  0  0  0
   27.2000   59.6740   -7.4420 C   0  0  0  0  0  0  0  0  0  0  0  0
   27.0540   59.2980   -6.0720 C   0  0  0  0  0  0  0  0  0  0  0  0
   26.8510   60.3220   -5.0980 C   0  0  0  0  0  0  0  0  0  0  0  0
   26.7120   59.9910   -3.7560 C   0  0  0  0  0  0  0  0  0  0  0  0
   26.7680   58.6200   -3.3920 C   0  0  0  0  0  0  0  0  0  0  0  0
   26.9800   57.6210   -4.3360 C   0  0  0  0  0  0  0  0  0  0  0  0
   27.1470   57.9530   -5.7030 C   0  0  0  0  0  0  0  0  0  0  0  0
   27.3740   56.9590   -6.6930 C   0  0  0  0  0  0  0  0  0  0  0  0
  2  1  1  0
  3  2  1  0
  4  2  1  0
  5  4  1  0
  6  5  1  0
  7  6  1  0
  8  7  1  0
  9  8  1  0
 10  9  1  0
 11 10  1  0
 12  7  1  0
 12 11  1  0
 13 12  1  0
 13  4  1  0
M  END
$$$$
Mac1-UCSF-P0385_0A
     RDKit          3D

  9  9  0  0  0  0  0  0  0  0999 V2000
   28.5740   50.1930   -6.6090 C   0  0  0  0  0  0  0  0  0  0  0  0
   28.7550   51.7080   -6.4070 C   0  0  1  0  0  0  0  0  0  0  0  0
   29.4080   52.2020   -5.3060 C   0  0  0  0  0  0  0  0  0  0  0  0
   29.5620   53.5130   -5.2180 N   0  0  0  0  0  0  0  0  0  0  0  0
   29.1200   54.3230   -6.1430 C   0  0  0  0  0  0  0  0  0  0  0  0
   29.3840   55.8000   -5.8720 C   0  0  0  0  0  0  0  0  0  0  0  0
   28.4950   53.8940   -7.2400 N   0  0  0  0  0  0  0  0  0  0  0  0
   28.3190   52.5790   -7.3850 C   0  0  0  0  0  0  0  0  0  0  0  0
   27.6490   51.9600   -8.5180 N   0  0  0  0  0  0  0  0  0  0  0  0
  2  1  1  6
  3  2  1  0
  4  3  1  0
  5  4  1  0
  6  5  1  0
  7  5  1  0
  8  7  1  0
  8  2  1  0
  9  8  1  0
M  END
$$$$
Mac1-UCSF-P0385_1A
     RDKit          3D

  9  9  0  0  0  0  0  0  0  0999 V2000
   28.7340   51.7960   -5.9810 C   0  0  0  0  0  0  0  0  0  0  0  0
   28.6010   50.5270   -6.8350 C   0  0  0  0  0  0  0  0  0  0  0  0
   29.0160   49.2770   -6.4420 C   0  0  0  0  0  0  0  0  0  0  0  0
   28.8470   48.2690   -7.2910 N   0  0  0  0  0  0  0  0  0  0  0  0
   28.2970   48.4630   -8.4740 C   0  0  0  0  0  0  0  0  0  0  0  0
   28.0810   47.3040   -9.4310 C   0  0  0  0  0  0  0  0  0  0  0  0
   27.9080   49.6400   -8.8750 N   0  0  0  0  0  0  0  0  0  0  0  0
   28.0350   50.6730   -8.0910 C   0  0  0  0  0  0  0  0  0  0  0  0
   27.5950   51.9670   -8.5210 N   0  0  0  0  0  0  0  0  0  0  0  0
  2  1  1  0
  3  2  1  0
  4  3  1  0
  5  4  1  0
  6  5  1  0
  7  5  1  0
  8  7  1  0
  8  2  1  0
  9  8  1  0
M  END
$$$$
Mac1-UCSF-P0387_0A
     RDKit          3D

 11 12  0  0  0  0  0  0  0  0999 V2000
   27.6640   51.4750   -8.6620 N   0  0  0  0  0  0  0  0  0  0  0  0
   28.0470   50.0830   -8.6820 C   0  0  0  0  0  0  0  0  0  0  0  0
   27.7950   49.3600   -9.7580 N   0  0  0  0  0  0  0  0  0  0  0  0
   28.1180   48.0760   -9.8230 C   0  0  0  0  0  0  0  0  0  0  0  0
   28.7550   47.4600   -8.7560 C   0  0  0  0  0  0  0  0  0  0  0  0
   29.0500   48.2060   -7.5780 C   0  0  0  0  0  0  0  0  0  0  0  0
   29.6930   47.6000   -6.4600 C   0  0  0  0  0  0  0  0  0  0  0  0
   29.9710   48.3490   -5.3230 C   0  0  0  0  0  0  0  0  0  0  0  0
   29.5920   49.6870   -5.2790 C   0  0  0  0  0  0  0  0  0  0  0  0
   28.9680   50.2750   -6.3640 C   0  0  0  0  0  0  0  0  0  0  0  0
   28.6830   49.5220   -7.5390 C   0  0  0  0  0  0  0  0  0  0  0  0
  2  1  1  0
  3  2  1  0
  4  3  1  0
  5  4  1  0
  6  5  1  0
  7  6  1  0
  8  7  1  0
  9  8  1  0
 10  9  1  0
 11  6  1  0
 11 10  1  0
 11  2  1  0
M  END
$$$$
Mac1-UCSF-P0392_0A
     RDKit          3D

 10 10  0  0  0  0  0  0  0  0999 V2000
   28.8710   47.3680   -9.2510 N   0  0  0  0  0  0  0  0  0  0  0  0
   28.8350   48.5680   -8.4500 C   0  0  0  0  0  0  0  0  0  0  0  0
   28.3740   49.7000   -9.0510 C   0  0  0  0  0  0  0  0  0  0  0  0
   28.3110   50.7850   -8.3650 N   0  0  0  0  0  0  0  0  0  0  0  0
   28.6510   50.9010   -7.0910 C   0  0  0  0  0  0  0  0  0  0  0  0
   29.1370   49.8500   -6.4230 C   0  0  0  0  0  0  0  0  0  0  0  0
   29.2310   48.6420   -7.1270 C   0  0  0  0  0  0  0  0  0  0  0  0
   29.7340   47.4860   -6.3460 C   0  0  0  0  0  0  0  0  0  0  0  0
   30.2560   47.7810   -5.2540 O   0  0  0  0  0  0  0  0  0  0  0  0
   29.5960   46.2960   -6.7490 O   0  0  0  0  0  0  0  0  0  0  0  0
  2  1  1  0
  3  2  1  0
  4  3  1  0
  5  4  1  0
  6  5  1  0
  7  2  1  0
  7  6  1  0
  8  7  1  0
  9  8  1  0
 10  8  1  0
M  CHG  1  10  -1
M  END
$$$$
Mac1-UCSF-P0394_0A
     RDKit          3D

 12 12  0  0  0  0  0  0  0  0999 V2000
   27.2590   44.3170   -3.6580 Cl  0  0  0  0  0  0  0  0  0  0  0  0
   30.3420   48.4550   -2.6520 Cl  0  0  0  0  0  0  0  0  0  0  0  0
   32.9670   46.4510   -7.4720 O   0  0  0  0  0  0  0  0  0  0  0  0
   31.8070   45.9450   -7.3520 C   0  0  1  0  0  0  0  0  0  0  0  0
   30.8450   46.0900   -8.1240 O   0  0  0  0  0  0  0  0  0  0  0  0
   31.7040   44.9570   -6.1820 C   0  0  0  0  0  0  0  0  0  0  0  0
   30.7330   45.4010   -5.1170 C   0  0  2  0  0  0  0  0  0  0  0  0
   29.5560   44.6860   -4.9210 C   0  0  0  0  0  0  0  0  0  0  0  0
   28.7100   45.1910   -4.0050 C   0  0  2  0  0  0  0  0  0  0  0  0
   28.9340   46.2870   -3.2920 C   0  0  0  0  0  0  0  0  0  0  0  0
   30.0260   46.9860   -3.5270 C   0  0  0  0  0  0  0  0  0  0  0  0
   30.9150   46.5610   -4.4790 C   0  0  0  0  0  0  0  0  0  0  0  0
  4  3  1  6
  5  4  1  0
  6  4  1  0
  7  6  1  6
  8  7  1  0
  9  8  1  0
  9  1  1  1
 10  9  1  0
 11 10  1  0
 11  2  1  0
 12 11  1  0
 12  7  1  0
M  CHG  1   3  -1
M  END
$$$$
Mac1-UCSF-P0396_0A
     RDKit          3D

  9  9  0  0  0  0  0  0  0  0999 V2000
   28.7660   54.6950   -7.4900 N   0  0  0  0  0  0  0  0  0  0  0  0
   29.0700   53.8870   -6.3600 C   0  0  2  0  0  0  0  0  0  0  0  0
   29.4720   54.2640   -5.3620 O   0  0  0  0  0  0  0  0  0  0  0  0
   28.9390   52.4120   -6.5490 C   0  0  2  0  0  0  0  0  0  0  0  0
   29.4660   51.5550   -5.5970 C   0  0  0  0  0  0  0  0  0  0  0  0
   29.3520   50.2030   -5.8950 C   0  0  0  0  0  0  0  0  0  0  0  0
   28.7890   49.7850   -7.0670 C   0  0  0  0  0  0  0  0  0  0  0  0
   28.3330   50.6320   -7.9430 N   0  0  0  0  0  0  0  0  0  0  0  0
   28.3820   51.9260   -7.7210 C   0  0  0  0  0  0  0  0  0  0  0  0
  2  1  1  6
  3  2  1  0
  4  2  1  0
  4  5  1  6
  6  5  1  0
  7  6  1  0
  8  7  1  0
  9  8  1  0
  9  4  1  0
M  END
$$$$
Mac1-UCSF-P0396_1A
     RDKit          3D

  9  9  0  0  0  0  0  0  0  0999 V2000
   28.1250   50.5890   -8.4730 N   0  0  0  0  0  0  0  0  0  0  0  0
   28.6700   50.7510   -7.1680 C   0  0  1  0  0  0  0  0  0  0  0  0
   29.0360   49.8580   -6.5350 O   0  0  0  0  0  0  0  0  0  0  0  0
   28.8680   52.1790   -6.6580 C   0  0  2  0  0  0  0  0  0  0  0  0
   28.6090   53.1830   -7.5100 C   0  0  0  0  0  0  0  0  0  0  0  0
   28.8300   54.4800   -7.1820 C   0  0  0  0  0  0  0  0  0  0  0  0
   29.3210   54.6700   -5.9120 C   0  0  0  0  0  0  0  0  0  0  0  0
   29.5700   53.7020   -5.1170 N   0  0  0  0  0  0  0  0  0  0  0  0
   29.3860   52.4400   -5.4450 C   0  0  0  0  0  0  0  0  0  0  0  0
  2  1  1  6
  3  2  1  0
  4  2  1  0
  4  5  1  6
  6  5  1  0
  7  6  1  0
  8  7  1  0
  9  4  1  0
  9  8  1  0
M  END
$$$$
Mac1-UCSF-P0397_0A
     RDKit          3D

 11 12  0  0  0  0  0  0  0  0999 V2000
   29.2570   52.6590   -4.0110 Cl  0  0  0  0  0  0  0  0  0  0  0  0
   27.7060   54.5510   -8.9090 N   0  0  0  0  0  0  0  0  0  0  0  0
   28.1110   53.3380   -8.2540 C   0  0  0  0  0  0  0  0  0  0  0  0
   28.4510   53.2610   -6.9260 N   0  0  0  0  0  0  0  0  0  0  0  0
   28.8040   51.8970   -6.6050 C   0  0  0  0  0  0  0  0  0  0  0  0
   29.2080   51.4790   -5.3300 C   0  0  0  0  0  0  0  0  0  0  0  0
   29.5240   50.1610   -5.0970 C   0  0  0  0  0  0  0  0  0  0  0  0
   29.4750   49.2440   -6.1460 C   0  0  0  0  0  0  0  0  0  0  0  0
   29.0940   49.6510   -7.4200 C   0  0  0  0  0  0  0  0  0  0  0  0
   28.7430   50.9880   -7.6490 C   0  0  0  0  0  0  0  0  0  0  0  0
   28.2630   51.8360   -9.0020 S   0  0  0  0  0  0  0  0  0  0  0  0
  3  2  1  0
  4  3  1  0
  5  4  1  0
  6  5  1  0
  6  1  1  0
  7  6  1  0
  8  7  1  0
  9  8  1  0
 10  9  1  0
 10  5  1  0
 11 10  1  0
 11  3  1  0
M  END
$$$$
Mac1-UCSF-P0398_0A
     RDKit          3D

 11 11  0  0  0  0  0  0  0  0999 V2000
   28.0510   54.1640   -8.2650 N   0  0  0  0  0  0  0  0  0  0  0  0
   28.4400   53.0010   -7.4830 C   0  0  0  0  0  0  0  0  0  0  0  0
   28.4100   51.6970   -8.0050 C   0  0  0  0  0  0  0  0  0  0  0  0
   28.7740   50.6060   -7.2190 C   0  0  0  0  0  0  0  0  0  0  0  0
   29.1560   50.7770   -5.9310 C   0  0  0  0  0  0  0  0  0  0  0  0
   29.5950   49.5980   -5.0560 C   0  0  0  0  0  0  0  0  0  0  0  0
   29.9950   49.8500   -3.9210 O   0  0  0  0  0  0  0  0  0  0  0  0
   29.5940   48.3940   -5.4450 O   0  0  0  0  0  0  0  0  0  0  0  0
   29.1960   52.0540   -5.3990 C   0  0  0  0  0  0  0  0  0  0  0  0
   29.5930   52.2410   -4.0950 O   0  0  0  0  0  0  0  0  0  0  0  0
   28.8350   53.1560   -6.1510 C   0  0  0  0  0  0  0  0  0  0  0  0
  2  1  1  0
  3  2  1  0
  4  3  1  0
  5  4  1  0
  6  5  1  0
  7  6  1  0
  8  6  1  0
  9  5  1  0
 10  9  1  0
 11  2  1  0
 11  9  1  0
M  CHG  1   8  -1
M  END
$$$$
Mac1-UCSF-P0402_0A
     RDKit          3D

 11 12  0  0  0  0  0  0  0  0999 V2000
   30.1530   48.0250   -5.1380 Cl  0  0  0  0  0  0  0  0  0  0  0  0
   27.5040   54.6320   -8.8400 N   0  0  0  0  0  0  0  0  0  0  0  0
   27.9710   53.4460   -8.1590 C   0  0  0  0  0  0  0  0  0  0  0  0
   28.3500   53.4540   -6.8560 N   0  0  0  0  0  0  0  0  0  0  0  0
   28.7710   52.1510   -6.4550 C   0  0  0  0  0  0  0  0  0  0  0  0
   29.2020   51.9240   -5.1430 C   0  0  0  0  0  0  0  0  0  0  0  0
   29.6150   50.6640   -4.8080 C   0  0  0  0  0  0  0  0  0  0  0  0
   29.6000   49.6290   -5.7280 C   0  0  0  0  0  0  0  0  0  0  0  0
   29.1570   49.8460   -7.0300 C   0  0  0  0  0  0  0  0  0  0  0  0
   28.7470   51.1410   -7.3950 C   0  0  0  0  0  0  0  0  0  0  0  0
   28.1850   51.8970   -8.7770 S   0  0  0  0  0  0  0  0  0  0  0  0
  3  2  1  0
  4  3  1  0
  5  4  1  0
  6  5  1  0
  7  6  1  0
  8  1  1  0
  8  7  1  0
  9  8  1  0
 10  9  1  0
 10  5  1  0
 11 10  1  0
 11  3  1  0
M  END
$$$$
Mac1-UCSF-P0404_0A
     RDKit          3D

 15 16  0  0  0  0  0  0  0  0999 V2000
   31.1730   46.0200   -8.2140 O   0  0  0  0  0  0  0  0  0  0  0  0
   32.1240   45.6920   -7.6040 C   0  0  2  0  0  0  0  0  0  0  0  0
   33.2530   46.0440   -7.9620 O   0  0  0  0  0  0  0  0  0  0  0  0
   32.1190   44.7340   -6.4130 C   0  0  0  0  0  0  0  0  0  0  0  0
   30.8930   44.7350   -5.7340 O   0  0  0  0  0  0  0  0  0  0  0  0
   30.7490   45.7250   -4.7970 C   0  0  1  0  0  0  0  0  0  0  0  0
   31.6490   46.7890   -4.6950 C   0  0  0  0  0  0  0  0  0  0  0  0
   31.4450   47.7720   -3.6840 C   0  0  0  0  0  0  0  0  0  0  0  0
   30.2720   47.6970   -3.0090 C   0  0  0  0  0  0  0  0  0  0  0  0
   29.4100   46.6460   -3.0940 C   0  0  0  0  0  0  0  0  0  0  0  0
   28.3240   46.5270   -2.2720 C   0  0  0  0  0  0  0  0  0  0  0  0
   27.3940   45.5420   -2.4120 C   0  0  0  0  0  0  0  0  0  0  0  0
   27.6250   44.5250   -3.3270 C   0  0  0  0  0  0  0  0  0  0  0  0
   28.7530   44.6200   -4.1470 C   0  0  0  0  0  0  0  0  0  0  0  0
   29.5780   45.6880   -4.0100 C   0  0  2  0  0  0  0  0  0  0  0  0
  2  1  1  6
  3  2  1  0
  4  2  1  0
  5  4  1  0
  6  5  1  6
  7  6  1  0
  8  7  1  0
  9  8  1  0
 10  9  1  0
 11 10  1  0
 12 11  1  0
 13 12  1  0
 14 13  1  0
 15 14  1  1
 15 10  1  0
 15  6  1  0
M  CHG  1   1  -1
M  END
$$$$
Mac1-UCSF-P0411_0A
     RDKit          3D

 13 13  0  0  0  0  0  0  0  0999 V2000
   36.9300   44.4670   -5.1700 Cl  0  0  0  0  0  0  0  0  0  0  0  0
   32.5010   47.6530   -5.0540 Cl  0  0  0  0  0  0  0  0  0  0  0  0
   31.6010   45.4490   -7.8110 O   0  0  0  0  0  0  0  0  0  0  0  0
   32.7170   45.4000   -7.2380 C   0  0  0  0  0  0  0  0  0  0  0  0
   33.7590   45.7420   -7.8010 O   0  0  0  0  0  0  0  0  0  0  0  0
   32.7910   44.8850   -5.8270 C   0  0  0  0  0  0  0  0  0  0  0  0
   34.0880   44.9050   -5.2800 O   0  0  0  0  0  0  0  0  0  0  0  0
   34.7990   46.1040   -5.1000 C   0  0  0  0  0  0  0  0  0  0  0  0
   36.1690   46.0210   -5.0410 C   0  0  0  0  0  0  0  0  0  0  0  0
   36.9670   47.1290   -4.9000 C   0  0  0  0  0  0  0  0  0  0  0  0
   36.4020   48.3480   -4.7890 C   0  0  0  0  0  0  0  0  0  0  0  0
   35.0420   48.4620   -4.8520 C   0  0  0  0  0  0  0  0  0  0  0  0
   34.2530   47.3570   -5.0000 C   0  0  0  0  0  0  0  0  0  0  0  0
  4  3  1  0
  5  4  1  0
  6  4  1  0
  7  6  1  0
  8  7  1  0
  9  8  1  0
  9  1  1  0
 10  9  1  0
 11 10  1  0
 12 11  1  0
 13  2  1  0
 13 12  1  0
 13  8  1  0
M  CHG  1   3  -1
M  END
$$$$
Mac1-UCSF-P0412_0A
     RDKit          3D

 11 12  0  0  0  0  0  0  0  0999 V2000
   29.1360   54.6160   -5.3310 O   0  0  0  0  0  0  0  0  0  0  0  0
   28.7850   53.9660   -6.2520 C   0  0  0  0  0  0  0  0  0  0  0  0
   28.2270   54.5900   -7.4530 N   0  0  0  0  0  0  0  0  0  0  0  0
   27.8090   53.7730   -8.5610 C   0  0  0  0  0  0  0  0  0  0  0  0
   27.9430   52.2830   -8.5050 C   0  0  0  0  0  0  0  0  0  0  0  0
   28.5190   51.6320   -7.2540 C   0  0  0  0  0  0  0  0  0  0  0  0
   28.6530   50.2350   -7.1950 C   0  0  0  0  0  0  0  0  0  0  0  0
   29.1870   49.6520   -6.0560 C   0  0  0  0  0  0  0  0  0  0  0  0
   29.5910   50.4430   -4.9750 C   0  0  0  0  0  0  0  0  0  0  0  0
   29.4580   51.8200   -5.0300 C   0  0  0  0  0  0  0  0  0  0  0  0
   28.9210   52.4170   -6.1830 C   0  0  0  0  0  0  0  0  0  0  0  0
  2  1  1  0
  3  2  1  0
  4  3  1  0
  5  4  1  0
  6  5  1  0
  7  6  1  0
  8  7  1  0
  9  8  1  0
 10  9  1  0
 11  6  1  0
 11  2  1  0
 11 10  1  0
M  END
$$$$
Mac1-UCSF-P0415_0A
     RDKit          3D

 14 15  0  0  0  0  0  0  0  0999 V2000
   33.0420   46.5490   -7.7130 O   0  0  0  0  0  0  0  0  0  0  0  0
   32.0320   45.9400   -7.4540 C   0  0  1  0  0  0  0  0  0  0  0  0
   31.0900   45.9550   -8.2140 O   0  0  0  0  0  0  0  0  0  0  0  0
   32.0770   45.0870   -6.1920 C   0  0  0  0  0  0  0  0  0  0  0  0
   30.7830   44.9160   -5.4560 C   0  0  0  0  0  0  0  0  0  0  0  0
   29.8640   43.9110   -5.6140 C   0  0  0  0  0  0  0  0  0  0  0  0
   28.8790   44.1300   -4.8100 N   0  0  0  0  0  0  0  0  0  0  0  0
   29.0210   45.2200   -4.0820 C   0  0  0  0  0  0  0  0  0  0  0  0
   28.2710   45.8630   -3.0690 C   0  0  0  0  0  0  0  0  0  0  0  0
   28.8060   47.0350   -2.5560 C   0  0  0  0  0  0  0  0  0  0  0  0
   30.0030   47.5530   -2.9640 C   0  0  0  0  0  0  0  0  0  0  0  0
   30.7070   46.9310   -3.9230 C   0  0  0  0  0  0  0  0  0  0  0  0
   30.2380   45.7690   -4.4570 C   0  0  0  0  0  0  0  0  0  0  0  0
   30.5990   49.1780   -2.0720 Br  0  0  0  0  0  0  0  0  0  0  0  0
  2  1  1  6
  3  2  1  0
  4  2  1  0
  5  4  1  0
  6  5  1  0
  7  6  1  0
  8  7  1  0
  9  8  1  0
 10  9  1  0
 11 10  1  0
 12 11  1  0
 13  5  1  0
 13 12  1  0
 13  8  1  0
 14 11  1  0
M  CHG  1   1  -1
M  END
$$$$
Mac1-UCSF-P0417_0A
     RDKit          3D

 13 14  0  0  0  0  0  0  0  0999 V2000
   31.4060   45.6530   -7.9770 O   0  0  0  0  0  0  0  0  0  0  0  0
   32.4330   45.6900   -7.3050 C   0  0  0  0  0  0  0  0  0  0  0  0
   33.5640   45.7590   -7.8940 O   0  0  0  0  0  0  0  0  0  0  0  0
   32.4000   45.6410   -5.7870 C   0  0  0  0  0  0  0  0  0  0  0  0
   33.7500   45.3860   -5.1690 C   0  0  0  0  0  0  0  0  0  0  0  0
   34.1800   44.2460   -4.6980 N   0  0  0  0  0  0  0  0  0  0  0  0
   35.3940   44.3550   -4.1790 O   0  0  0  0  0  0  0  0  0  0  0  0
   35.8530   45.5500   -4.3890 C   0  0  2  0  0  0  0  0  0  0  0  0
   37.0680   46.1950   -4.0180 C   0  0  0  0  0  0  0  0  0  0  0  0
   37.2300   47.5660   -4.2880 C   0  0  0  0  0  0  0  0  0  0  0  0
   36.1960   48.2440   -4.8020 C   0  0  0  0  0  0  0  0  0  0  0  0
   35.0470   47.6250   -5.1320 C   0  0  0  0  0  0  0  0  0  0  0  0
   34.8510   46.3010   -4.9590 C   0  0  2  0  0  0  0  0  0  0  0  0
  2  1  1  0
  3  2  1  0
  4  2  1  0
  5  4  1  0
  6  5  1  0
  7  6  1  0
  8  7  1  0
  8  9  1  1
 10  9  1  0
 11 10  1  0
 12 11  1  0
 13 12  1  1
 13  8  1  0
 13  5  1  0
M  CHG  1   1  -1
M  END
$$$$
Mac1-UCSF-P0433_0A
     RDKit          3D

  9  9  0  0  0  0  0  0  0  0999 V2000
   28.1160   50.2760   -7.7350 C   0  0  0  0  0  0  0  0  0  0  0  0
   28.5470   51.4210   -6.8180 C   0  0  0  0  0  0  0  0  0  0  0  0
   28.5800   52.7490   -7.2390 C   0  0  0  0  0  0  0  0  0  0  0  0
   28.9940   53.7100   -6.3260 C   0  0  0  0  0  0  0  0  0  0  0  0
   29.0840   55.1870   -6.6840 C   0  0  0  0  0  0  0  0  0  0  0  0
   29.3030   53.3450   -5.1050 N   0  0  0  0  0  0  0  0  0  0  0  0
   29.2470   52.0930   -4.7430 C   0  0  0  0  0  0  0  0  0  0  0  0
   29.6020   51.7030   -3.3930 N   0  0  0  0  0  0  0  0  0  0  0  0
   28.8700   51.1650   -5.5840 N   0  0  0  0  0  0  0  0  0  0  0  0
  2  1  1  0
  3  2  1  0
  4  3  1  0
  5  4  1  0
  6  4  1  0
  7  6  1  0
  8  7  1  0
  9  2  1  0
  9  7  1  0
M  END
$$$$
Mac1-UCSF-P0436_0A
     RDKit          3D

 16 17  0  0  0  0  0  0  0  0999 V2000
   33.1890   45.9030   -8.1000 O   0  0  0  0  0  0  0  0  0  0  0  0
   32.1200   45.4860   -7.7110 C   0  0  1  0  0  0  0  0  0  0  0  0
   31.0870   45.6630   -8.3900 O   0  0  0  0  0  0  0  0  0  0  0  0
   32.0710   44.6470   -6.4230 C   0  0  0  0  0  0  0  0  0  0  0  0
   32.0670   45.4510   -5.1850 C   0  0  0  0  0  0  0  0  0  0  0  0
   33.3950   46.1410   -5.0590 C   0  0  1  0  0  0  0  0  0  0  0  0
   34.4900   45.3640   -4.6860 N   0  0  0  0  0  0  0  0  0  0  0  0
   35.7990   45.9770   -4.6010 C   0  0  2  0  0  0  0  0  0  0  0  0
   36.8740   45.2220   -4.2040 C   0  0  0  0  0  0  0  0  0  0  0  0
   38.1420   45.8340   -4.0800 C   0  0  0  0  0  0  0  0  0  0  0  0
   38.2640   47.1740   -4.3580 C   0  0  0  0  0  0  0  0  0  0  0  0
   37.1940   47.9450   -4.7730 C   0  0  0  0  0  0  0  0  0  0  0  0
   35.9340   47.3480   -4.8690 C   0  0  0  0  0  0  0  0  0  0  0  0
   34.8190   48.1540   -5.2970 N   0  0  0  0  0  0  0  0  0  0  0  0
   33.5390   47.5320   -5.4030 C   0  0  0  0  0  0  0  0  0  0  0  0
   32.6220   48.1610   -5.7220 O   0  0  0  0  0  0  0  0  0  0  0  0
  2  1  1  6
  3  2  1  0
  4  2  1  0
  5  4  1  0
  6  5  1  6
  7  6  1  0
  8  7  1  0
  8  9  1  1
 10  9  1  0
 11 10  1  0
 12 11  1  0
 13 12  1  0
 13  8  1  0
 14 13  1  0
 15 14  1  0
 15  6  1  0
 16 15  1  0
M  CHG  1   1  -1
M  END
$$$$
Mac1-UCSF-P0437_0A
     RDKit          3D

 14 15  0  0  0  0  0  0  0  0999 V2000
   31.2320   45.6430   -8.1820 O   0  0  0  0  0  0  0  0  0  0  0  0
   32.2950   45.3360   -7.5790 C   0  0  0  0  0  0  0  0  0  0  0  0
   33.4020   45.6850   -8.0610 O   0  0  0  0  0  0  0  0  0  0  0  0
   32.2220   44.5390   -6.2610 C   0  0  0  0  0  0  0  0  0  0  0  0
   32.2500   45.3570   -4.9590 C   0  0  0  0  0  0  0  0  0  0  0  0
   33.4510   46.1690   -4.9230 N   0  0  0  0  0  0  0  0  0  0  0  0
   33.5140   47.4410   -5.2160 C   0  0  0  0  0  0  0  0  0  0  0  0
   34.7550   47.8680   -5.1170 N   0  0  0  0  0  0  0  0  0  0  0  0
   35.5180   46.8520   -4.7670 C   0  0  0  0  0  0  0  0  0  0  0  0
   36.8960   46.7640   -4.5290 C   0  0  0  0  0  0  0  0  0  0  0  0
   37.4230   45.5560   -4.1430 C   0  0  0  0  0  0  0  0  0  0  0  0
   36.6010   44.4410   -4.0070 C   0  0  0  0  0  0  0  0  0  0  0  0
   35.2450   44.5330   -4.2590 C   0  0  0  0  0  0  0  0  0  0  0  0
   34.6980   45.7540   -4.6400 C   0  0  0  0  0  0  0  0  0  0  0  0
  2  1  1  0
  3  2  1  0
  4  2  1  0
  5  4  1  0
  6  5  1  0
  7  6  1  0
  8  7  1  0
  9  8  1  0
 10  9  1  0
 11 10  1  0
 12 11  1  0
 13 12  1  0
 14 13  1  0
 14  9  1  0
 14  6  1  0
M  CHG  1   1  -1
M  END
$$$$
Mac1-UCSF-P0439_0A
     RDKit          3D

 13 14  0  0  0  0  0  0  0  0999 V2000
   30.1530   48.3290   -2.6010 Cl  0  0  0  0  0  0  0  0  0  0  0  0
   29.9750   43.7500   -7.7370 O   0  0  0  0  0  0  0  0  0  0  0  0
   30.1630   44.8900   -7.3230 C   0  0  0  0  0  0  0  0  0  0  0  0
   30.7060   45.7610   -8.0140 O   0  0  0  0  0  0  0  0  0  0  0  0
   29.6560   45.2200   -5.9380 C   0  0  0  0  0  0  0  0  0  0  0  0
   29.9980   46.3100   -5.1450 C   0  0  0  0  0  0  0  0  0  0  0  0
   29.2630   46.1580   -3.9720 C   0  0  0  0  0  0  0  0  0  0  0  0
   29.1570   46.8920   -2.8090 C   0  0  0  0  0  0  0  0  0  0  0  0
   28.3230   46.5080   -1.7920 C   0  0  0  0  0  0  0  0  0  0  0  0
   27.5450   45.4110   -1.9500 C   0  0  0  0  0  0  0  0  0  0  0  0
   27.6540   44.6230   -3.0890 C   0  0  0  0  0  0  0  0  0  0  0  0
   28.5270   45.0210   -4.1180 C   0  0  0  0  0  0  0  0  0  0  0  0
   28.7930   44.4800   -5.3310 N   0  0  0  0  0  0  0  0  0  0  0  0
  3  2  1  0
  4  3  1  0
  5  3  1  0
  6  5  1  0
  7  6  1  0
  8  7  1  0
  8  1  1  0
  9  8  1  0
 10  9  1  0
 11 10  1  0
 12 11  1  0
 12  7  1  0
 13  5  1  0
 13 12  1  0
M  CHG  1   2  -1
M  END
$$$$
Mac1-UCSF-P0441_0A
     RDKit          3D

 17 18  0  0  0  0  0  0  0  0999 V2000
   33.5930   45.7740   -7.7020 O   0  0  0  0  0  0  0  0  0  0  0  0
   32.4660   45.6890   -7.1760 C   0  0  0  0  0  0  0  0  0  0  0  0
   31.4340   45.5860   -7.8730 O   0  0  0  0  0  0  0  0  0  0  0  0
   32.3880   45.6540   -5.6660 C   0  0  0  0  0  0  0  0  0  0  0  0
   33.6860   45.4060   -5.0410 N   0  0  0  0  0  0  0  0  0  0  0  0
   34.0390   44.3090   -4.4800 N   0  0  0  0  0  0  0  0  0  0  0  0
   35.2000   44.3490   -4.0130 C   0  0  0  0  0  0  0  0  0  0  0  0
   35.7000   45.6330   -4.2580 C   0  0  0  0  0  0  0  0  0  0  0  0
   37.0310   46.2830   -3.9200 C   0  0  0  0  0  0  0  0  0  0  0  0
   37.1220   47.6600   -4.5810 C   0  0  0  0  0  0  0  0  0  0  0  0
   35.8170   48.4480   -4.5510 C   0  0  0  0  0  0  0  0  0  0  0  0
   34.7390   47.7200   -5.3790 C   0  0  0  0  0  0  0  0  0  0  0  0
   34.6490   46.2670   -4.9090 C   0  0  0  0  0  0  0  0  0  0  0  0
   35.8830   43.2190   -3.2920 C   0  0  1  0  0  0  0  0  0  0  0  0
   36.9150   42.7690   -3.9840 F   0  0  0  0  0  0  0  0  0  0  0  0
   36.3060   43.6660   -2.1100 F   0  0  0  0  0  0  0  0  0  0  0  0
   35.0120   42.2090   -3.0100 F   0  0  0  0  0  0  0  0  0  0  0  0
  2  1  1  0
  3  2  1  0
  4  2  1  0
  5  4  1  0
  6  5  1  0
  7  6  1  0
  8  7  1  0
  9  8  1  0
 10  9  1  0
 11 10  1  0
 12 11  1  0
 13 12  1  0
 13  8  1  0
 13  5  1  0
 14  7  1  0
 14 15  1  6
 16 14  1  0
 17 14  1  0
M  CHG  1   1  -1
M  END
$$$$
Mac1-UCSF-P0444_0A
     RDKit          3D

 12 13  0  0  0  0  0  0  0  0999 V2000
   12.7030   29.8220  -13.9410 N   0  0  0  0  0  0  0  0  0  0  0  0
   13.7630   28.8610  -13.9750 C   0  0  0  0  0  0  0  0  0  0  0  0
   13.9920   28.2290  -13.0070 O   0  0  0  0  0  0  0  0  0  0  0  0
   14.5600   28.6970  -15.2830 C   0  0  0  0  0  0  0  0  0  0  0  0
   14.8120   29.8120  -16.0890 C   0  0  0  0  0  0  0  0  0  0  0  0
   15.5380   29.6760  -17.2780 C   0  0  0  0  0  0  0  0  0  0  0  0
   16.0010   28.4280  -17.6510 C   0  0  0  0  0  0  0  0  0  0  0  0
   15.7490   27.2960  -16.8400 C   0  0  0  0  0  0  0  0  0  0  0  0
   16.0820   25.9770  -16.9790 N   0  0  0  0  0  0  0  0  0  0  0  0
   15.6170   25.2720  -15.9630 C   0  0  0  0  0  0  0  0  0  0  0  0
   14.9510   26.1370  -15.1150 C   0  0  0  0  0  0  0  0  0  0  0  0
   15.0380   27.4260  -15.6720 C   0  0  0  0  0  0  0  0  0  0  0  0
  2  1  1  0
  3  2  1  0
  4  2  1  0
  5  4  1  0
  6  5  1  0
  7  6  1  0
  8  7  1  0
  9  8  1  0
 10  9  1  0
 11 10  1  0
 12 11  1  0
 12  8  1  0
 12  4  1  0
M  END
$$$$
Mac1-UCSF-P0451_0A
     RDKit          3D

 11 12  0  0  0  0  0  0  0  0999 V2000
   27.8140   54.6910   -8.8560 N   0  0  0  0  0  0  0  0  0  0  0  0
   28.1810   53.4700   -8.1890 C   0  0  0  0  0  0  0  0  0  0  0  0
   28.5530   53.4210   -6.8760 N   0  0  0  0  0  0  0  0  0  0  0  0
   28.8480   52.0690   -6.4950 C   0  0  0  0  0  0  0  0  0  0  0  0
   29.2660   51.7250   -5.2010 C   0  0  0  0  0  0  0  0  0  0  0  0
   29.5360   50.3990   -4.9310 C   0  0  0  0  0  0  0  0  0  0  0  0
   29.3530   49.4510   -5.9430 C   0  0  0  0  0  0  0  0  0  0  0  0
   28.9460   49.7970   -7.2090 C   0  0  0  0  0  0  0  0  0  0  0  0
   28.7000   51.1290   -7.4940 C   0  0  0  0  0  0  0  0  0  0  0  0
   28.1920   51.9300   -8.8630 S   0  0  0  0  0  0  0  0  0  0  0  0
   29.6020   48.1580   -5.6890 F   0  0  0  0  0  0  0  0  0  0  0  0
  2  1  1  0
  3  2  1  0
  4  3  1  0
  5  4  1  0
  6  5  1  0
  7  6  1  0
  8  7  1  0
  9  8  1  0
  9  4  1  0
 10  9  1  0
 10  2  1  0
 11  7  1  0
M  END
$$$$
Mac1-UCSF-P0453_0A
     RDKit          3D

  8  8  0  0  0  0  0  0  0  0999 V2000
   28.9300   54.7900   -8.7870 N   0  0  0  0  0  0  0  0  0  0  0  0
   29.4360   53.5940   -8.1360 C   0  0  0  0  0  0  0  0  0  0  0  0
   28.3040   52.6450   -7.7560 C   0  0  0  0  0  0  0  0  0  0  0  0
   28.8330   51.3870   -7.0250 C   0  0  0  0  0  0  0  0  0  0  0  0
   29.0540   50.1570   -7.5850 C   0  0  0  0  0  0  0  0  0  0  0  0
   29.5200   49.3660   -6.6490 N   0  0  0  0  0  0  0  0  0  0  0  0
   29.6230   50.0590   -5.5320 C   0  0  0  0  0  0  0  0  0  0  0  0
   29.1910   51.2940   -5.7600 N   0  0  0  0  0  0  0  0  0  0  0  0
  2  1  1  0
  3  2  1  0
  4  3  1  0
  5  4  1  0
  6  5  1  0
  7  6  1  0
  8  7  1  0
  8  4  1  0
M  END
$$$$
Mac1-UCSF-P0455_0A
     RDKit          3D

 12 12  0  0  0  0  0  0  0  0999 V2000
   30.1030   48.6020   -5.9920 C   0  0  0  0  0  0  0  0  0  0  0  0
   30.5910   47.1990   -5.6970 C   0  0  1  0  0  0  0  0  0  0  0  0
   29.8230   46.8220   -4.6340 O   0  0  0  0  0  0  0  0  0  0  0  0
   30.1970   46.4340   -6.9410 C   0  0  0  0  0  0  0  0  0  0  0  0
   29.0870   45.8760   -7.0400 O   0  0  0  0  0  0  0  0  0  0  0  0
   30.9330   46.3230   -7.9180 O   0  0  0  0  0  0  0  0  0  0  0  0
   32.0830   47.0080   -5.3960 C   0  0  0  0  0  0  0  0  0  0  0  0
   32.5760   45.7550   -5.2340 C   0  0  0  0  0  0  0  0  0  0  0  0
   33.9290   45.5660   -4.9750 C   0  0  0  0  0  0  0  0  0  0  0  0
   34.7910   46.6450   -4.9090 C   0  0  0  0  0  0  0  0  0  0  0  0
   34.3010   47.9110   -5.0890 C   0  0  0  0  0  0  0  0  0  0  0  0
   32.9150   48.0710   -5.3210 C   0  0  0  0  0  0  0  0  0  0  0  0
  2  1  1  6
  3  2  1  0
  4  2  1  0
  5  4  1  0
  6  4  1  0
  7  2  1  0
  8  7  1  0
  9  8  1  0
 10  9  1  0
 11 10  1  0
 12  7  1  0
 12 11  1  0
M  CHG  1   6  -1
M  END
$$$$
Mac1-UCSF-P0472_0A
     RDKit          3D

 15 16  0  0  0  0  0  0  0  0999 V2000
   29.4190   50.6280   -4.7350 O   0  0  0  0  0  0  0  0  0  0  0  0
   30.2730   49.7640   -5.4050 S   0  0  1  0  0  0  0  0  0  0  0  0
   30.7480   48.7060   -4.5670 O   0  0  0  0  0  0  0  0  0  0  0  0
   29.4540   48.9660   -6.6550 N   0  0  0  0  0  0  0  0  0  0  0  0
   28.8500   49.8030   -7.5880 C   0  0  0  0  0  0  0  0  0  0  0  0
   28.5240   49.5210   -8.8270 N   0  0  0  0  0  0  0  0  0  0  0  0
   27.9390   50.5290   -9.4940 N   0  0  0  0  0  0  0  0  0  0  0  0
   27.7660   51.6600   -8.8380 C   0  0  0  0  0  0  0  0  0  0  0  0
   28.3760   51.4030   -7.2340 S   0  0  0  0  0  0  0  0  0  0  0  0
   31.6620   50.6870   -6.1090 C   0  0  0  0  0  0  0  0  0  0  0  0
   32.7450   49.9800   -6.5410 C   0  0  0  0  0  0  0  0  0  0  0  0
   33.8240   50.6180   -7.1140 C   0  0  0  0  0  0  0  0  0  0  0  0
   33.8110   51.9920   -7.2190 C   0  0  0  0  0  0  0  0  0  0  0  0
   32.7240   52.7070   -6.7640 C   0  0  0  0  0  0  0  0  0  0  0  0
   31.6250   52.0480   -6.2270 C   0  0  0  0  0  0  0  0  0  0  0  0
  2  1  1  1
  3  2  1  0
  4  2  1  0
  5  4  1  0
  6  5  1  0
  7  6  1  0
  8  7  1  0
  9  8  1  0
  9  5  1  0
 10  2  1  0
 11 10  1  0
 12 11  1  0
 13 12  1  0
 14 13  1  0
 15 10  1  0
 15 14  1  0
M  END
$$$$
Mac1-UCSF-P0482_0B
     RDKit          3D

 13 14  0  0  0  0  0  0  0  0999 V2000
    9.7170   46.9230   12.8730 C   0  0  0  0  0  0  0  0  0  0  0  0
    8.7020   47.4970   12.1140 C   0  0  0  0  0  0  0  0  0  0  0  0
    7.7010   46.6840   11.7020 C   0  0  0  0  0  0  0  0  0  0  0  0
    7.7140   45.3620   11.9820 C   0  0  0  0  0  0  0  0  0  0  0  0
    6.6250   44.4730   11.4680 N   0  0  0  0  0  0  0  0  0  0  0  0
    5.6240   45.0560   10.6850 C   0  0  0  0  0  0  0  0  0  0  0  0
    4.4490   45.5470   11.5200 C   0  0  0  0  0  0  0  0  0  0  0  0
    3.5960   44.4420   12.1930 C   0  0  0  0  0  0  0  0  0  0  0  0
    4.2240   43.3450   12.8840 N   0  0  0  0  0  0  0  0  0  0  0  0
    5.6070   43.1510   13.1160 C   0  0  0  0  0  0  0  0  0  0  0  0
    6.5630   43.1270   11.9950 C   0  0  0  0  0  0  0  0  0  0  0  0
    8.7160   44.8470   12.6760 N   0  0  0  0  0  0  0  0  0  0  0  0
    9.6680   45.5440   13.1090 C   0  0  0  0  0  0  0  0  0  0  0  0
  2  1  1  0
  3  2  1  0
  4  3  1  0
  5  4  1  0
  6  5  1  0
  7  6  1  0
  8  7  1  0
  9  8  1  0
 10  9  1  0
 11 10  1  0
 11  5  1  0
 12  4  1  0
 13 12  1  0
 13  1  1  0
M  END
$$$$
Mac1-UCSF-P0496_0A
     RDKit          3D

 19 20  0  0  0  0  0  0  0  0999 V2000
   24.5340   57.9210   -7.6410 C   0  0  0  0  0  0  0  0  0  0  0  0
   25.9400   57.7340   -7.0690 C   0  0  0  0  0  0  0  0  0  0  0  0
   26.4390   58.2510   -5.9430 N   0  0  0  0  0  0  0  0  0  0  0  0
   27.7370   57.8310   -5.8600 O   0  0  0  0  0  0  0  0  0  0  0  0
   27.9660   57.0470   -6.9210 C   0  0  0  0  0  0  0  0  0  0  0  0
   29.2590   56.3400   -7.2650 C   0  0  0  0  0  0  0  0  0  0  0  0
   29.0070   54.9470   -7.6100 N   0  0  0  0  0  0  0  0  0  0  0  0
   29.0810   53.9260   -6.5910 C   0  0  0  0  0  0  0  0  0  0  0  0
   29.3370   54.2180   -5.4830 O   0  0  0  0  0  0  0  0  0  0  0  0
   28.8430   52.4600   -6.9660 C   0  0  0  0  0  0  0  0  0  0  0  0
   28.2450   52.1480   -8.1730 C   0  0  0  0  0  0  0  0  0  0  0  0
   28.0420   50.8150   -8.5100 C   0  0  0  0  0  0  0  0  0  0  0  0
   28.4400   49.8090   -7.6450 C   0  0  0  0  0  0  0  0  0  0  0  0
   29.0280   50.1430   -6.4390 C   0  0  0  0  0  0  0  0  0  0  0  0
   29.5000   49.0710   -5.4560 C   0  0  0  0  0  0  0  0  0  0  0  0
   29.6240   47.8920   -5.8370 O   0  0  0  0  0  0  0  0  0  0  0  0
   29.7860   49.3980   -4.2680 O   0  0  0  0  0  0  0  0  0  0  0  0
   29.2400   51.4590   -6.1140 C   0  0  0  0  0  0  0  0  0  0  0  0
   26.8730   56.9990   -7.6480 N   0  0  0  0  0  0  0  0  0  0  0  0
  2  1  1  0
  3  2  1  0
  4  3  1  0
  5  4  1  0
  6  5  1  0
  7  6  1  0
  8  7  1  0
  9  8  1  0
 10  8  1  0
 11 10  1  0
 12 11  1  0
 13 12  1  0
 14 13  1  0
 15 14  1  0
 16 15  1  0
 17 15  1  0
 18 14  1  0
 18 10  1  0
 19  2  1  0
 19  5  1  0
M  CHG  1  17  -1
M  END
$$$$
Mac1-UCSF-P0509_0A
     RDKit          3D

 10 11  0  0  0  0  0  0  0  0999 V2000
   37.3830   48.0720   -6.0100 O   0  0  0  0  0  0  0  0  0  0  0  0
   37.3670   47.0990   -5.3670 C   0  0  0  0  0  0  0  0  0  0  0  0
   36.8620   46.9270   -3.9900 C   0  0  0  0  0  0  0  0  0  0  0  0
   37.0990   45.4850   -3.6180 C   0  0  0  0  0  0  0  0  0  0  0  0
   36.8380   44.7610   -2.4670 C   0  0  0  0  0  0  0  0  0  0  0  0
   37.1680   43.4030   -2.4290 C   0  0  0  0  0  0  0  0  0  0  0  0
   37.7640   42.7560   -3.5360 C   0  0  0  0  0  0  0  0  0  0  0  0
   38.0180   43.4870   -4.6790 C   0  0  0  0  0  0  0  0  0  0  0  0
   37.7010   44.8410   -4.7220 C   0  0  0  0  0  0  0  0  0  0  0  0
   37.8660   45.8460   -5.8380 N   0  0  0  0  0  0  0  0  0  0  0  0
  2  1  1  0
  3  2  1  0
  4  3  1  0
  5  4  1  0
  6  5  1  0
  7  6  1  0
  8  7  1  0
  9  8  1  0
  9  4  1  0
 10  9  1  0
 10  2  1  0
M  END
$$$$
Mac1-UCSF-P0510_0A
     RDKit          3D

 11 12  0  0  0  0  0  0  0  0999 V2000
   28.3550   53.3090   -7.1580 O   0  0  0  0  0  0  0  0  0  0  0  0
   28.4180   52.1210   -7.2210 C   0  0  0  0  0  0  0  0  0  0  0  0
   28.7890   51.3740   -6.1810 N   0  0  0  0  0  0  0  0  0  0  0  0
   28.8800   50.0760   -6.2050 C   0  0  0  0  0  0  0  0  0  0  0  0
   29.1920   49.4710   -5.2340 O   0  0  0  0  0  0  0  0  0  0  0  0
   28.6160   49.3820   -7.4020 C   0  0  0  0  0  0  0  0  0  0  0  0
   28.6080   48.0740   -7.7790 N   0  0  0  0  0  0  0  0  0  0  0  0
   28.2300   48.0550   -9.0230 C   0  0  0  0  0  0  0  0  0  0  0  0
   27.9850   49.2560   -9.4610 N   0  0  0  0  0  0  0  0  0  0  0  0
   28.2130   50.1230   -8.4630 C   0  0  0  0  0  0  0  0  0  0  0  0
   28.1260   51.4820   -8.3660 N   0  0  0  0  0  0  0  0  0  0  0  0
  2  1  1  0
  3  2  1  0
  4  3  1  0
  5  4  1  0
  6  4  1  0
  7  6  1  0
  8  7  1  0
  9  8  1  0
 10  9  1  0
 10  6  1  0
 11 10  1  0
 11  2  1  0
M  END
$$$$
Mac1-UCSF-P0511_0B
     RDKit          3D

 11 12  0  0  0  0  0  0  0  0999 V2000
    5.9910   45.5550   -1.4240 C   0  0  0  0  0  0  0  0  0  0  0  0
    4.9850   44.9810   -0.6890 C   0  0  0  0  0  0  0  0  0  0  0  0
    5.2010   43.6040   -0.7350 C   0  0  0  0  0  0  0  0  0  0  0  0
    4.2550   42.6340   -0.0020 C   0  0  2  0  0  0  0  0  0  0  0  0
    5.0080   41.7050    0.8680 C   0  0  0  0  0  0  0  0  0  0  0  0
    3.9880   40.9380    1.7040 C   0  0  0  0  0  0  0  0  0  0  0  0
    2.9230   40.2630    0.9240 N   0  0  0  0  0  0  0  0  0  0  0  0
    3.0250   40.5090   -0.5500 C   0  0  0  0  0  0  0  0  0  0  0  0
    3.3430   41.9510   -0.9560 C   0  0  0  0  0  0  0  0  0  0  0  0
    6.2740   43.3620   -1.4710 N   0  0  0  0  0  0  0  0  0  0  0  0
    6.7480   44.5610   -1.8990 N   0  0  0  0  0  0  0  0  0  0  0  0
  2  1  1  0
  3  2  1  0
  4  3  1  6
  5  4  1  0
  6  5  1  0
  7  6  1  0
  8  7  1  0
  9  8  1  0
  9  4  1  0
 10  3  1  0
 11 10  1  0
 11  1  1  0
M  END
$$$$
Mac1-UCSF-P0511_1B
     RDKit          3D

 11 12  0  0  0  0  0  0  0  0999 V2000
    0.7130   38.2120    2.2930 C   0  0  0  0  0  0  0  0  0  0  0  0
    0.9400   39.5170    1.9050 C   0  0  0  0  0  0  0  0  0  0  0  0
    2.2600   39.5470    1.4210 C   0  0  0  0  0  0  0  0  0  0  0  0
    2.9150   40.8360    0.9010 C   0  0  2  0  0  0  0  0  0  0  0  0
    3.0340   40.8310   -0.5730 C   0  0  0  0  0  0  0  0  0  0  0  0
    3.4070   42.2700   -0.9370 C   0  0  0  0  0  0  0  0  0  0  0  0
    4.7700   42.6320   -0.4590 N   0  0  0  0  0  0  0  0  0  0  0  0
    5.1910   41.9920    0.8400 C   0  0  0  0  0  0  0  0  0  0  0  0
    4.2230   41.0310    1.5530 C   0  0  0  0  0  0  0  0  0  0  0  0
    2.7880   38.3150    1.5220 N   0  0  0  0  0  0  0  0  0  0  0  0
    1.8360   37.5080    2.0510 N   0  0  0  0  0  0  0  0  0  0  0  0
  2  1  1  0
  3  2  1  0
  4  3  1  1
  5  4  1  0
  6  5  1  0
  7  6  1  0
  8  7  1  0
  9  8  1  0
  9  4  1  0
 10  3  1  0
 11 10  1  0
 11  1  1  0
M  END
$$$$
Mac1-UCSF-P0522_0A
     RDKit          3D

 14 15  0  0  0  0  0  0  0  0999 V2000
   37.9460   42.3150   -2.3940 O   0  0  0  0  0  0  0  0  0  0  0  0
   38.4190   41.2540   -2.5540 C   0  0  0  0  0  0  0  0  0  0  0  0
   39.1880   40.9330   -3.7370 N   0  0  0  0  0  0  0  0  0  0  0  0
   39.4120   41.9430   -4.7520 C   0  0  2  0  0  0  0  0  0  0  0  0
   40.1230   41.8460   -5.8540 N   0  0  0  0  0  0  0  0  0  0  0  0
   40.2210   42.9120   -6.6300 C   0  0  0  0  0  0  0  0  0  0  0  0
   39.5590   44.0450   -6.1980 C   0  0  0  0  0  0  0  0  0  0  0  0
   38.8520   43.5570   -4.7160 S   0  0  0  0  0  0  0  0  0  0  0  0
   38.2120   40.2220   -1.4630 C   0  0  0  0  0  0  0  0  0  0  0  0
   38.9540   39.0620   -1.4910 C   0  0  0  0  0  0  0  0  0  0  0  0
   38.7990   38.1130   -0.5020 C   0  0  0  0  0  0  0  0  0  0  0  0
   37.9070   38.3390    0.5290 C   0  0  0  0  0  0  0  0  0  0  0  0
   37.1640   39.5140    0.5640 C   0  0  0  0  0  0  0  0  0  0  0  0
   37.3250   40.4660   -0.4320 C   0  0  0  0  0  0  0  0  0  0  0  0
  2  1  1  0
  3  2  1  0
  4  3  1  1
  5  4  1  0
  6  5  1  0
  7  6  1  0
  8  4  1  0
  8  7  1  0
  9  2  1  0
 10  9  1  0
 11 10  1  0
 12 11  1  0
 13 12  1  0
 14 13  1  0
 14  9  1  0
M  END
$$$$
Mac1-UCSF-P0524_0A
     RDKit          3D

  7  6  0  0  0  0  0  0  0  0999 V2000
   33.3500   45.9600   -7.7040 O   0  0  0  0  0  0  0  0  0  0  0  0
   32.3010   45.4380   -7.5180 C   0  0  1  0  0  0  0  0  0  0  0  0
   31.2740   45.5180   -8.1850 O   0  0  0  0  0  0  0  0  0  0  0  0
   32.2790   44.4220   -6.3290 C   0  0  1  0  0  0  0  0  0  0  0  0
   32.1300   43.2230   -6.7520 F   0  0  0  0  0  0  0  0  0  0  0  0
   33.3110   44.4050   -5.6370 F   0  0  0  0  0  0  0  0  0  0  0  0
   31.3610   44.6360   -5.5240 F   0  0  0  0  0  0  0  0  0  0  0  0
  2  1  1  6
  3  2  1  0
  4  2  1  0
  4  5  1  6
  6  4  1  0
  7  4  1  0
M  END
$$$$
Mac1-UCSF-P0527_0A
     RDKit          3D

 16 17  0  0  0  0  0  0  0  0999 V2000
   30.0100   49.5250   -4.1180 O   0  0  0  0  0  0  0  0  0  0  0  0
   29.6490   49.3670   -5.2270 C   0  0  2  0  0  0  0  0  0  0  0  0
   29.8210   48.0970   -5.8630 N   0  0  0  0  0  0  0  0  0  0  0  0
   30.3750   47.0400   -5.0760 C   0  0  0  0  0  0  0  0  0  0  0  0
   31.9000   46.9370   -5.1100 C   0  0  0  0  0  0  0  0  0  0  0  0
   32.7320   47.9990   -5.3860 C   0  0  0  0  0  0  0  0  0  0  0  0
   34.1100   47.8070   -5.3570 C   0  0  0  0  0  0  0  0  0  0  0  0
   34.6620   46.5950   -5.0480 C   0  0  0  0  0  0  0  0  0  0  0  0
   33.8270   45.5370   -4.7640 C   0  0  0  0  0  0  0  0  0  0  0  0
   32.4600   45.7080   -4.8180 C   0  0  0  0  0  0  0  0  0  0  0  0
   29.1120   50.5070   -6.1020 C   0  0  1  0  0  0  0  0  0  0  0  0
   29.1670   51.8030   -5.6360 C   0  0  0  0  0  0  0  0  0  0  0  0
   28.7610   52.8050   -6.3580 N   0  0  0  0  0  0  0  0  0  0  0  0
   28.2890   52.5750   -7.5740 C   0  0  0  0  0  0  0  0  0  0  0  0
   28.2540   51.2700   -8.0520 C   0  0  0  0  0  0  0  0  0  0  0  0
   28.6570   50.2720   -7.3000 N   0  0  0  0  0  0  0  0  0  0  0  0
  2  1  1  6
  3  2  1  0
  4  3  1  0
  5  4  1  0
  6  5  1  0
  7  6  1  0
  8  7  1  0
  9  8  1  0
 10  5  1  0
 10  9  1  0
 11  2  1  0
 11 12  1  6
 13 12  1  0
 14 13  1  0
 15 14  1  0
 16 15  1  0
 16 11  1  0
M  END
$$$$
Mac1-UCSF-P0546_0A
     RDKit          3D

 15 16  0  0  0  0  0  0  0  0999 V2000
   30.7150   49.5510   -2.1200 C   0  0  0  0  0  0  0  0  0  0  0  0
   29.5010   48.8340   -2.1550 O   0  0  0  0  0  0  0  0  0  0  0  0
   29.4340   47.5910   -2.8070 C   0  0  0  0  0  0  0  0  0  0  0  0
   28.3740   46.7460   -2.5550 C   0  0  0  0  0  0  0  0  0  0  0  0
   28.2340   45.5250   -3.1670 C   0  0  0  0  0  0  0  0  0  0  0  0
   29.1900   45.1140   -4.0940 C   0  0  0  0  0  0  0  0  0  0  0  0
   29.3070   44.0030   -4.8250 N   0  0  0  0  0  0  0  0  0  0  0  0
   30.3840   44.0360   -5.5480 C   0  0  0  0  0  0  0  0  0  0  0  0
   31.0250   45.2180   -5.2970 C   0  0  0  0  0  0  0  0  0  0  0  0
   32.3080   45.6670   -5.9410 C   0  0  0  0  0  0  0  0  0  0  0  0
   32.2040   46.1880   -7.3610 C   0  0  0  0  0  0  0  0  0  0  0  0
   31.2190   46.1180   -8.1210 O   0  0  0  0  0  0  0  0  0  0  0  0
   33.2310   46.7000   -7.7790 O   0  0  0  0  0  0  0  0  0  0  0  0
   30.2550   45.9320   -4.3320 C   0  0  0  0  0  0  0  0  0  0  0  0
   30.3650   47.1720   -3.7070 C   0  0  0  0  0  0  0  0  0  0  0  0
  2  1  1  0
  3  2  1  0
  4  3  1  0
  5  4  1  0
  6  5  1  0
  7  6  1  0
  8  7  1  0
  9  8  1  0
 10  9  1  0
 11 10  1  0
 12 11  1  0
 13 11  1  0
 14  9  1  0
 14  6  1  0
 15 14  1  0
 15  3  1  0
M  CHG  1  13  -1
M  END
$$$$
Mac1-UCSF-P0555_0A
     RDKit          3D

 11 12  0  0  0  0  0  0  0  0999 V2000
   28.5720   55.5790   -8.5600 N   0  0  0  0  0  0  0  0  0  0  0  0
   28.7720   54.5120   -7.6010 C   0  0  0  0  0  0  0  0  0  0  0  0
   29.2500   54.7980   -6.3220 C   0  0  0  0  0  0  0  0  0  0  0  0
   29.4780   53.8750   -5.4520 N   0  0  0  0  0  0  0  0  0  0  0  0
   29.2170   52.5920   -5.6920 C   0  0  0  0  0  0  0  0  0  0  0  0
   29.5050   51.6500   -4.6750 C   0  0  0  0  0  0  0  0  0  0  0  0
   29.2710   50.3070   -4.8840 C   0  0  0  0  0  0  0  0  0  0  0  0
   28.7950   49.8950   -6.1300 C   0  0  0  0  0  0  0  0  0  0  0  0
   28.5430   50.8000   -7.1250 C   0  0  0  0  0  0  0  0  0  0  0  0
   28.7450   52.1920   -6.8910 C   0  0  0  0  0  0  0  0  0  0  0  0
   28.5050   53.1770   -7.9040 C   0  0  0  0  0  0  0  0  0  0  0  0
  2  1  1  0
  3  2  1  0
  4  3  1  0
  5  4  1  0
  6  5  1  0
  7  6  1  0
  8  7  1  0
  9  8  1  0
 10  9  1  0
 10  5  1  0
 11 10  1  0
 11  2  1  0
M  END
$$$$
Mac1-UCSF-P0564_0A
     RDKit          3D

 14 16  0  0  0  0  0  0  0  0999 V2000
   31.3140   46.2000   -7.9510 O   0  0  0  0  0  0  0  0  0  0  0  0
   31.8750   45.5270   -7.1530 C   0  0  1  0  0  0  0  0  0  0  0  0
   31.4460   44.2190   -6.8760 N   0  0  0  0  0  0  0  0  0  0  0  0
   32.0980   43.4030   -5.9330 C   0  0  0  0  0  0  0  0  0  0  0  0
   33.2950   43.8760   -5.2390 N   0  0  0  0  0  0  0  0  0  0  0  0
   33.7660   45.2400   -5.5480 C   0  0  1  0  0  0  0  0  0  0  0  0
   34.9200   46.0240   -5.0730 C   0  0  0  0  0  0  0  0  0  0  0  0
   35.9620   45.8160   -4.1850 C   0  0  0  0  0  0  0  0  0  0  0  0
   36.8950   46.8170   -3.9780 C   0  0  0  0  0  0  0  0  0  0  0  0
   36.7920   48.0330   -4.6480 C   0  0  0  0  0  0  0  0  0  0  0  0
   35.7750   48.2470   -5.5460 C   0  0  0  0  0  0  0  0  0  0  0  0
   34.8260   47.2180   -5.7590 C   0  0  0  0  0  0  0  0  0  0  0  0
   33.7560   47.2130   -6.5780 O   0  0  0  0  0  0  0  0  0  0  0  0
   33.1250   46.0300   -6.4860 C   0  0  2  0  0  0  0  0  0  0  0  0
  2  1  1  6
  3  2  1  0
  4  3  1  0
  5  4  1  0
  6  5  1  6
  7  6  1  0
  8  7  1  0
  9  8  1  0
 10  9  1  0
 11 10  1  0
 12 11  1  0
 12  7  1  0
 13 12  1  0
 14  2  1  0
 14 13  1  1
 14  6  1  0
M  END
$$$$
Mac1-UCSF-P0564_1A
     RDKit          3D

 14 16  0  0  0  0  0  0  0  0999 V2000
   29.6510   46.2850   -8.2760 O   0  0  0  0  0  0  0  0  0  0  0  0
   29.9340   46.7200   -7.1660 C   0  0  0  0  0  0  0  0  0  0  0  0
   30.5670   45.8610   -6.2420 N   0  0  0  0  0  0  0  0  0  0  0  0
   30.8870   46.2540   -4.9110 C   0  0  0  0  0  0  0  0  0  0  0  0
   30.5980   47.5690   -4.4860 N   0  0  0  0  0  0  0  0  0  0  0  0
   29.9680   48.4930   -5.4520 C   0  0  0  0  0  0  0  0  0  0  0  0
   29.5830   49.8790   -5.2690 C   0  0  0  0  0  0  0  0  0  0  0  0
   29.6780   50.8280   -4.2150 C   0  0  0  0  0  0  0  0  0  0  0  0
   29.1590   52.0850   -4.4490 C   0  0  0  0  0  0  0  0  0  0  0  0
   28.5990   52.4590   -5.6820 C   0  0  0  0  0  0  0  0  0  0  0  0
   28.5070   51.5190   -6.7050 C   0  0  0  0  0  0  0  0  0  0  0  0
   29.0130   50.2320   -6.4810 C   0  0  0  0  0  0  0  0  0  0  0  0
   29.0890   49.1690   -7.3630 O   0  0  0  0  0  0  0  0  0  0  0  0
   29.6250   48.1290   -6.7320 C   0  0  0  0  0  0  0  0  0  0  0  0
  2  1  1  0
  3  2  1  0
  4  3  1  0
  5  4  1  0
  6  5  1  0
  7  6  1  0
  8  7  1  0
  9  8  1  0
 10  9  1  0
 11 10  1  0
 12 11  1  0
 12  7  1  0
 13 12  1  0
 14  6  1  0
 14  2  1  0
 14 13  1  0
M  END
$$$$
Mac1-UCSF-P0565_0A
     RDKit          3D

 12 13  0  0  0  0  0  0  0  0999 V2000
   28.4340   53.0900   -7.1350 O   0  0  0  0  0  0  0  0  0  0  0  0
   28.9500   52.9810   -6.0110 C   0  0  2  0  0  0  0  0  0  0  0  0
   29.2150   54.0350   -5.3660 O   0  0  0  0  0  0  0  0  0  0  0  0
   29.3220   51.5850   -5.5140 C   0  0  0  0  0  0  0  0  0  0  0  0
   29.7850   51.4110   -4.2400 C   0  0  0  0  0  0  0  0  0  0  0  0
   30.1510   50.1490   -3.8080 C   0  0  0  0  0  0  0  0  0  0  0  0
   30.0440   49.0570   -4.6720 C   0  0  0  0  0  0  0  0  0  0  0  0
   30.3350   47.6920   -4.5330 O   0  0  0  0  0  0  0  0  0  0  0  0
   29.6040   47.0420   -5.5270 C   0  0  0  0  0  0  0  0  0  0  0  0
   29.5930   47.9570   -6.5820 O   0  0  0  0  0  0  0  0  0  0  0  0
   29.5900   49.2220   -5.9410 C   0  0  0  0  0  0  0  0  0  0  0  0
   29.2080   50.4850   -6.3640 C   0  0  0  0  0  0  0  0  0  0  0  0
  2  1  1  6
  3  2  1  0
  4  2  1  0
  5  4  1  0
  6  5  1  0
  7  6  1  0
  8  7  1  0
  9  8  1  0
 10  9  1  0
 11 10  1  0
 11  7  1  0
 12 11  1  0
 12  4  1  0
M  CHG  1   1  -1
M  END
$$$$
Mac1-UCSF-P0567_0A
     RDKit          3D

 10 11  0  0  0  0  0  0  0  0999 V2000
   29.1030   47.3920   -9.3940 N   0  0  0  0  0  0  0  0  0  0  0  0
   28.6680   48.7210   -9.0410 C   0  0  0  0  0  0  0  0  0  0  0  0
   28.0430   49.5570   -9.8410 N   0  0  0  0  0  0  0  0  0  0  0  0
   27.8180   50.6820   -9.1510 N   0  0  0  0  0  0  0  0  0  0  0  0
   28.2900   50.6040   -7.8940 C   0  0  0  0  0  0  0  0  0  0  0  0
   28.2870   51.5230   -6.8080 C   0  0  0  0  0  0  0  0  0  0  0  0
   28.8670   51.1490   -5.6000 C   0  0  0  0  0  0  0  0  0  0  0  0
   29.4430   49.8810   -5.4680 C   0  0  0  0  0  0  0  0  0  0  0  0
   29.4400   48.9790   -6.5320 C   0  0  0  0  0  0  0  0  0  0  0  0
   28.8580   49.3560   -7.7610 C   0  0  0  0  0  0  0  0  0  0  0  0
  2  1  1  0
  3  2  1  0
  4  3  1  0
  5  4  1  0
  6  5  1  0
  7  6  1  0
  8  7  1  0
  9  8  1  0
 10  9  1  0
 10  2  1  0
 10  5  1  0
M  END
$$$$
Mac1-UCSF-P0568_0A
     RDKit          3D

 10 10  0  0  0  0  0  0  0  0999 V2000
   28.9670   55.9300   -6.8270 C   0  0  0  0  0  0  0  0  0  0  0  0
   28.9380   54.4180   -6.7680 C   0  0  0  0  0  0  0  0  0  0  0  0
   28.4970   53.6670   -7.8480 C   0  0  0  0  0  0  0  0  0  0  0  0
   28.5010   52.2870   -7.7500 C   0  0  0  0  0  0  0  0  0  0  0  0
   28.9460   51.7360   -6.5590 C   0  0  0  0  0  0  0  0  0  0  0  0
   29.3520   52.5690   -5.5320 C   0  0  0  0  0  0  0  0  0  0  0  0
   29.3320   53.8620   -5.6530 N   0  0  0  0  0  0  0  0  0  0  0  0
   29.0170   50.2590   -6.3030 C   0  0  0  0  0  0  0  0  0  0  0  0
   29.4180   49.8970   -5.2490 O   0  0  0  0  0  0  0  0  0  0  0  0
   28.6530   49.3080   -7.3340 N   0  0  0  0  0  0  0  0  0  0  0  0
  2  1  1  0
  3  2  1  0
  4  3  1  0
  5  4  1  0
  6  5  1  0
  7  6  1  0
  7  2  1  0
  8  5  1  0
  9  8  1  0
 10  8  1  0
M  END
$$$$
Mac1-UCSF-P0570_0A
     RDKit          3D

 12 12  0  0  0  0  0  0  0  0999 V2000
    9.3910   39.6050    2.1630 C   0  0  0  0  0  0  0  0  0  0  0  0
    8.2770   39.5350    1.1280 C   0  0  2  0  0  0  0  0  0  0  0  0
    6.9960   39.1500    1.8520 C   0  0  0  0  0  0  0  0  0  0  0  0
    8.6120   38.4670    0.0950 C   0  0  0  0  0  0  0  0  0  0  0  0
    8.0740   40.8720    0.4060 C   0  0  0  0  0  0  0  0  0  0  0  0
    9.0910   41.7950    0.2850 C   0  0  0  0  0  0  0  0  0  0  0  0
    8.8770   42.9810   -0.3880 C   0  0  0  0  0  0  0  0  0  0  0  0
    7.6520   43.2590   -0.9570 C   0  0  0  0  0  0  0  0  0  0  0  0
    7.4170   44.4730   -1.6370 O   0  0  0  0  0  0  0  0  0  0  0  0
    6.6470   42.3270   -0.8300 C   0  0  0  0  0  0  0  0  0  0  0  0
    5.4010   42.5800   -1.3800 O   0  0  0  0  0  0  0  0  0  0  0  0
    6.8560   41.1480   -0.1600 C   0  0  0  0  0  0  0  0  0  0  0  0
  2  1  1  1
  3  2  1  0
  4  2  1  0
  5  2  1  0
  6  5  1  0
  7  6  1  0
  8  7  1  0
  9  8  1  0
 10  8  1  0
 11 10  1  0
 12 10  1  0
 12  5  1  0
M  END
$$$$
Mac1-UCSF-P0570_0B
     RDKit          3D

 12 12  0  0  0  0  0  0  0  0999 V2000
    9.0720   39.6370    1.9190 C   0  0  0  0  0  0  0  0  0  0  0  0
    8.0750   39.5520    0.7910 C   0  0  2  0  0  0  0  0  0  0  0  0
    6.7440   39.0800    1.3460 C   0  0  0  0  0  0  0  0  0  0  0  0
    8.6090   38.4980   -0.1810 C   0  0  0  0  0  0  0  0  0  0  0  0
    7.8920   40.9060    0.0910 C   0  0  0  0  0  0  0  0  0  0  0  0
    8.9050   41.8520    0.0610 C   0  0  0  0  0  0  0  0  0  0  0  0
    8.7300   43.0720   -0.5860 C   0  0  0  0  0  0  0  0  0  0  0  0
    7.5290   43.3630   -1.2010 C   0  0  0  0  0  0  0  0  0  0  0  0
    7.3300   44.5980   -1.8530 O   0  0  0  0  0  0  0  0  0  0  0  0
    6.5140   42.4140   -1.1630 C   0  0  0  0  0  0  0  0  0  0  0  0
    5.3000   42.6800   -1.7900 O   0  0  0  0  0  0  0  0  0  0  0  0
    6.7030   41.2020   -0.5220 C   0  0  0  0  0  0  0  0  0  0  0  0
  2  1  1  1
  3  2  1  0
  4  2  1  0
  5  2  1  0
  6  5  1  0
  7  6  1  0
  8  7  1  0
  9  8  1  0
 10  8  1  0
 11 10  1  0
 12 10  1  0
 12  5  1  0
M  END
$$$$
Mac1-UCSF-P0572_0A
     RDKit          3D

 13 14  0  0  0  0  0  0  0  0999 V2000
   28.0950   56.2580   -8.7260 C   0  0  0  0  0  0  0  0  0  0  0  0
   28.3510   54.9910   -7.9320 C   0  0  0  0  0  0  0  0  0  0  0  0
   27.9270   53.7190   -8.4830 N   0  0  0  0  0  0  0  0  0  0  0  0
   28.1710   52.4490   -7.7250 C   0  0  0  0  0  0  0  0  0  0  0  0
   27.7570   51.2480   -8.3070 C   0  0  0  0  0  0  0  0  0  0  0  0
   27.9680   50.0500   -7.6190 C   0  0  0  0  0  0  0  0  0  0  0  0
   28.5950   50.0610   -6.3460 C   0  0  0  0  0  0  0  0  0  0  0  0
   29.0160   51.2580   -5.7680 C   0  0  0  0  0  0  0  0  0  0  0  0
   28.7960   52.4690   -6.4540 C   0  0  0  0  0  0  0  0  0  0  0  0
   29.2550   53.7950   -5.8480 C   0  0  0  0  0  0  0  0  0  0  0  0
   29.7740   53.8080   -4.7830 O   0  0  0  0  0  0  0  0  0  0  0  0
   29.0130   55.0380   -6.6100 C   0  0  0  0  0  0  0  0  0  0  0  0
   29.4060   56.2740   -6.0940 O   0  0  0  0  0  0  0  0  0  0  0  0
  2  1  1  0
  3  2  1  0
  4  3  1  0
  5  4  1  0
  6  5  1  0
  7  6  1  0
  8  7  1  0
  9  8  1  0
  9  4  1  0
 10  9  1  0
 11 10  1  0
 12 10  1  0
 12  2  1  0
 13 12  1  0
M  END
$$$$
Mac1-UCSF-P0576_0A
     RDKit          3D

 13 14  0  0  0  0  0  0  0  0999 V2000
   28.3780   47.5650  -10.3530 N   0  0  0  0  0  0  0  0  0  0  0  0
   28.5400   48.3700   -9.1770 C   0  0  0  0  0  0  0  0  0  0  0  0
   28.3540   49.6740   -9.3180 N   0  0  0  0  0  0  0  0  0  0  0  0
   28.5010   50.4900   -8.2430 C   0  0  0  0  0  0  0  0  0  0  0  0
   28.3040   51.8230   -8.3390 N   0  0  0  0  0  0  0  0  0  0  0  0
   28.4450   52.5950   -7.2720 C   0  0  0  0  0  0  0  0  0  0  0  0
   28.2810   53.7590   -7.3830 O   0  0  0  0  0  0  0  0  0  0  0  0
   28.7970   52.0360   -6.0440 C   0  0  0  0  0  0  0  0  0  0  0  0
   28.9710   50.7340   -5.9460 N   0  0  0  0  0  0  0  0  0  0  0  0
   28.8330   49.9320   -7.0440 C   0  0  0  0  0  0  0  0  0  0  0  0
   29.0310   48.5190   -6.9490 C   0  0  0  0  0  0  0  0  0  0  0  0
   29.3440   47.9960   -5.9280 O   0  0  0  0  0  0  0  0  0  0  0  0
   28.8770   47.7870   -8.0310 N   0  0  0  0  0  0  0  0  0  0  0  0
  2  1  1  0
  3  2  1  0
  4  3  1  0
  5  4  1  0
  6  5  1  0
  7  6  1  0
  8  6  1  0
  9  8  1  0
 10  9  1  0
 10  4  1  0
 11 10  1  0
 12 11  1  0
 13 11  1  0
 13  2  1  0
M  END
$$$$
Mac1-UCSF-P0582_0A
     RDKit          3D

 15 17  0  0  0  0  0  0  0  0999 V2000
    7.6100   47.7080   11.8940 C   0  0  0  0  0  0  0  0  0  0  0  0
    6.5290   48.6220   12.3050 N   0  0  0  0  0  0  0  0  0  0  0  0
    5.1930   48.0430   12.5640 C   0  0  1  0  0  0  0  0  0  0  0  0
    5.1040   46.8630   12.4860 O   0  0  0  0  0  0  0  0  0  0  0  0
    3.9070   48.7580   13.0520 C   0  0  1  0  0  0  0  0  0  0  0  0
    3.1580   48.5100   11.8180 C   0  0  0  0  0  0  0  0  0  0  0  0
    3.0730   49.8340   12.4290 C   0  0  1  0  0  0  0  0  0  0  0  0
    2.9640   51.0040   13.5550 C   0  0  0  0  0  0  0  0  0  0  0  0
    3.2370   50.4070   14.8410 C   0  0  0  0  0  0  0  0  0  0  0  0
    4.3320   49.2530   14.5010 C   0  0  0  0  0  0  0  0  0  0  0  0
    6.8780   50.0400   12.3330 C   0  0  0  0  0  0  0  0  0  0  0  0
    8.1840   50.5140   12.2370 C   0  0  0  0  0  0  0  0  0  0  0  0
    8.1170   51.8560   12.2700 N   0  0  0  0  0  0  0  0  0  0  0  0
    6.7980   52.2180   12.3760 N   0  0  0  0  0  0  0  0  0  0  0  0
    6.0530   51.1360   12.4110 C   0  0  0  0  0  0  0  0  0  0  0  0
  2  1  1  0
  3  2  1  0
  3  4  1  1
  5  3  1  0
  5  6  1  1
  7  6  1  1
  7  5  1  0
  8  7  1  0
  9  8  1  0
 10  5  1  0
 10  9  1  0
 11  2  1  0
 12 11  1  0
 13 12  1  0
 14 13  1  0
 15 14  1  0
 15 11  1  0
M  END
$$$$
Mac1-UCSF-P0584_0A
     RDKit          3D

 18 21  0  0  0  0  0  0  0  0999 V2000
   33.3650   45.4900   -7.0070 C   0  0  0  0  0  0  0  0  0  0  0  0
   32.7010   46.7480   -6.4660 C   0  0  0  0  0  0  0  0  0  0  0  0
   31.3560   46.1060   -6.7230 C   0  0  1  0  0  0  0  0  0  0  0  0
   32.0680   44.7750   -6.6810 C   0  0  0  0  0  0  0  0  0  0  0  0
   30.1300   46.4720   -5.8140 C   0  0  1  0  0  0  0  0  0  0  0  0
   30.4490   46.2780   -4.1980 C   0  0  0  0  0  0  0  0  0  0  0  0
   30.4130   47.4690   -3.6300 C   0  0  0  0  0  0  0  0  0  0  0  0
   29.9600   48.5400   -4.6920 C   0  0  0  0  0  0  0  0  0  0  0  0
   29.7420   47.7110   -5.9750 N   0  0  0  0  0  0  0  0  0  0  0  0
   29.0890   48.2080   -7.0890 C   0  0  0  0  0  0  0  0  0  0  0  0
   28.8640   47.4110   -8.0420 N   0  0  0  0  0  0  0  0  0  0  0  0
   28.2530   47.7980   -9.1380 C   0  0  0  0  0  0  0  0  0  0  0  0
   27.8380   49.0120   -9.3330 N   0  0  0  0  0  0  0  0  0  0  0  0
   28.0840   49.9030   -8.3820 C   0  0  0  0  0  0  0  0  0  0  0  0
   27.8190   51.2280   -8.3180 N   0  0  0  0  0  0  0  0  0  0  0  0
   28.1530   51.7430   -7.1540 C   0  0  0  0  0  0  0  0  0  0  0  0
   28.7590   50.7310   -6.4170 C   0  0  0  0  0  0  0  0  0  0  0  0
   28.6950   49.5600   -7.2150 C   0  0  0  0  0  0  0  0  0  0  0  0
  2  1  1  0
  3  2  1  1
  4  3  1  0
  4  1  1  0
  5  3  1  0
  5  6  1  1
  7  6  1  0
  8  7  1  0
  9  5  1  0
  9  8  1  0
 10  9  1  0
 11 10  1  0
 12 11  1  0
 13 12  1  0
 14 13  1  0
 15 14  1  0
 16 15  1  0
 17 16  1  0
 18 10  1  0
 18 17  1  0
 18 14  1  0
M  END
$$$$
Mac1-UCSF-P0587_0A
     RDKit          3D

 15 15  0  0  0  0  0  0  0  0999 V2000
   29.1720   45.6800   -4.7280 C   0  0  0  0  0  0  0  0  0  0  0  0
   30.1630   46.7210   -5.2830 C   0  0  2  0  0  0  0  0  0  0  0  0
   31.9320   46.2330   -4.9960 S   0  0  0  0  0  0  0  0  0  0  0  0
   33.0290   46.6060   -6.3550 C   0  0  0  0  0  0  0  0  0  0  0  0
   32.6390   45.9420   -7.6620 C   0  0  2  0  0  0  0  0  0  0  0  0
   33.6770   45.8490   -8.2820 O   0  0  0  0  0  0  0  0  0  0  0  0
   31.4960   45.6230   -8.1600 O   0  0  0  0  0  0  0  0  0  0  0  0
   29.9400   48.1740   -4.9000 C   0  0  1  0  0  0  0  0  0  0  0  0
   30.2220   48.6880   -3.9030 O   0  0  0  0  0  0  0  0  0  0  0  0
   29.4600   49.0730   -5.8380 N   0  0  0  0  0  0  0  0  0  0  0  0
   29.2620   50.4670   -5.6360 C   0  0  0  0  0  0  0  0  0  0  0  0
   28.6840   50.9820   -6.9100 C   0  0  0  0  0  0  0  0  0  0  0  0
   28.5380   49.8650   -7.7870 N   0  0  0  0  0  0  0  0  0  0  0  0
   29.0050   48.7080   -7.1300 C   0  0  0  0  0  0  0  0  0  0  0  0
   28.9940   47.6330   -7.5510 O   0  0  0  0  0  0  0  0  0  0  0  0
  2  1  1  1
  3  2  1  0
  4  3  1  0
  5  4  1  0
  5  6  1  6
  7  5  1  0
  8  2  1  0
  8  9  1  6
 10  8  1  0
 11 10  1  0
 12 11  1  0
 13 12  1  0
 14 13  1  0
 14 10  1  0
 15 14  1  0
M  CHG  1   7  -1
M  END
$$$$
Mac1-UCSF-P0588_0A
     RDKit          3D

 16 18  0  0  0  0  0  0  0  0999 V2000
   27.8860   51.8930   -7.8090 N   0  0  0  0  0  0  0  0  0  0  0  0
   28.4390   50.6660   -7.2450 C   0  0  0  0  0  0  0  0  0  0  0  0
   28.4050   49.4180   -8.0190 C   0  0  0  0  0  0  0  0  0  0  0  0
   27.9230   49.1060   -9.2770 N   0  0  0  0  0  0  0  0  0  0  0  0
   28.1510   47.7930   -9.4980 C   0  0  0  0  0  0  0  0  0  0  0  0
   28.7430   47.3010   -8.4370 N   0  0  0  0  0  0  0  0  0  0  0  0
   28.9000   48.3380   -7.5060 C   0  0  0  0  0  0  0  0  0  0  0  0
   29.4530   48.3810   -6.2360 N   0  0  0  0  0  0  0  0  0  0  0  0
   30.0260   47.1400   -5.6360 C   0  0  0  0  0  0  0  0  0  0  0  0
   31.4920   47.1510   -5.7800 C   0  0  2  0  0  0  0  0  0  0  0  0
   31.8710   47.5120   -7.2630 O   0  0  0  0  0  0  0  0  0  0  0  0
   32.5510   46.5200   -7.7570 C   0  0  0  0  0  0  0  0  0  0  0  0
   32.2440   45.3090   -6.8400 C   0  0  0  0  0  0  0  0  0  0  0  0
   31.9800   45.9200   -5.5170 C   0  0  0  0  0  0  0  0  0  0  0  0
   29.4870   49.5200   -5.5250 C   0  0  0  0  0  0  0  0  0  0  0  0
   28.9690   50.6740   -6.0500 N   0  0  0  0  0  0  0  0  0  0  0  0
  2  1  1  0
  3  2  1  0
  4  3  1  0
  5  4  1  0
  6  5  1  0
  7  6  1  0
  7  3  1  0
  8  7  1  0
  9  8  1  0
 10  9  1  6
 11 10  1  0
 12 11  1  0
 13 12  1  0
 14 13  1  0
 14 10  1  0
 15  8  1  0
 16 15  1  0
 16  2  1  0
M  END
$$$$
Mac1-UCSF-P0588_1A
     RDKit          3D

 16 18  0  0  0  0  0  0  0  0999 V2000
   27.9240   51.8400   -7.8010 N   0  0  0  0  0  0  0  0  0  0  0  0
   28.4550   50.6360   -7.2400 C   0  0  0  0  0  0  0  0  0  0  0  0
   28.3910   49.4090   -7.9980 C   0  0  0  0  0  0  0  0  0  0  0  0
   27.9010   49.1270   -9.2550 N   0  0  0  0  0  0  0  0  0  0  0  0
   28.1720   47.8430   -9.4310 C   0  0  0  0  0  0  0  0  0  0  0  0
   28.7420   47.3320   -8.3610 N   0  0  0  0  0  0  0  0  0  0  0  0
   28.8840   48.3290   -7.4810 C   0  0  0  0  0  0  0  0  0  0  0  0
   29.4070   48.3230   -6.2300 N   0  0  0  0  0  0  0  0  0  0  0  0
   29.9710   47.0690   -5.5820 C   0  0  0  0  0  0  0  0  0  0  0  0
   28.8880   46.2570   -4.9180 C   0  0  2  0  0  0  0  0  0  0  0  0
   28.4890   47.0330   -3.6190 O   0  0  0  0  0  0  0  0  0  0  0  0
   27.9670   46.1850   -2.7480 C   0  0  0  0  0  0  0  0  0  0  0  0
   28.2380   44.7700   -3.3000 C   0  0  0  0  0  0  0  0  0  0  0  0
   29.2100   45.0160   -4.4170 C   0  0  0  0  0  0  0  0  0  0  0  0
   29.4120   49.4600   -5.5660 C   0  0  0  0  0  0  0  0  0  0  0  0
   28.9460   50.6220   -6.0660 N   0  0  0  0  0  0  0  0  0  0  0  0
  2  1  1  0
  3  2  1  0
  4  3  1  0
  5  4  1  0
  6  5  1  0
  7  6  1  0
  7  3  1  0
  8  7  1  0
  9  8  1  0
 10  9  1  1
 11 10  1  0
 12 11  1  0
 13 12  1  0
 14 13  1  0
 14 10  1  0
 15  8  1  0
 16 15  1  0
 16  2  1  0
M  END
$$$$
Mac1-UCSF-P0590_0A
     RDKit          3D

 36 40  0  0  0  0  0  0  0  0999 V2000
   27.7670   52.0740   -7.8460 N   0  0  0  0  0  0  0  0  0  0  0  0
   28.3340   50.8700   -7.2810 C   0  0  0  0  0  0  0  0  0  0  0  0
   28.3760   49.6610   -7.9830 C   0  0  0  0  0  0  0  0  0  0  0  0
   27.9680   49.2920   -9.2080 N   0  0  0  0  0  0  0  0  0  0  0  0
   28.2670   48.0000   -9.3620 C   0  0  0  0  0  0  0  0  0  0  0  0
   28.8400   47.5530   -8.2480 N   0  0  0  0  0  0  0  0  0  0  0  0
   28.9100   48.6010   -7.4050 C   0  0  0  0  0  0  0  0  0  0  0  0
   29.3970   48.6760   -6.1410 N   0  0  0  0  0  0  0  0  0  0  0  0
   29.9690   47.4630   -5.5290 C   0  0  0  0  0  0  0  0  0  0  0  0
   31.4670   47.6180   -5.2630 C   0  0  0  0  0  0  0  0  0  0  0  0
   32.0830   46.2590   -4.8440 C   0  0  0  0  0  0  0  0  0  0  0  0
   33.0830   45.5830   -5.8840 C   0  0  2  0  0  0  0  0  0  0  0  0
   32.7500   45.7650   -7.1840 C   0  0  0  0  0  0  0  0  0  0  0  0
   31.9430   44.4500   -7.7030 O   0  0  0  0  0  0  0  0  0  0  0  0
   32.0170   43.5290   -6.8360 C   0  0  0  0  0  0  0  0  0  0  0  0
   33.1000   44.0690   -5.7830 C   0  0  0  0  0  0  0  0  0  0  0  0
   29.3650   49.8260   -5.4680 C   0  0  0  0  0  0  0  0  0  0  0  0
   28.8220   50.9090   -6.0500 N   0  0  0  0  0  0  0  0  0  0  0  0
    7.9650   52.5830   12.0750 N   0  0  0  0  0  0  0  0  0  0  0  0
    7.6440   51.1610   12.1890 C   0  0  0  0  0  0  0  0  0  0  0  0
    6.3640   50.7410   12.5390 C   0  0  0  0  0  0  0  0  0  0  0  0
    5.2390   51.4520   12.7910 N   0  0  0  0  0  0  0  0  0  0  0  0
    4.2830   50.5580   13.0650 C   0  0  0  0  0  0  0  0  0  0  0  0
    4.7880   49.3200   12.9700 N   0  0  0  0  0  0  0  0  0  0  0  0
    6.0860   49.4450   12.6440 C   0  0  0  0  0  0  0  0  0  0  0  0
    7.0550   48.5330   12.3930 N   0  0  0  0  0  0  0  0  0  0  0  0
    6.8030   47.0940   12.5230 C   0  0  0  0  0  0  0  0  0  0  0  0
    5.9950   46.5300   11.3680 C   0  0  0  0  0  0  0  0  0  0  0  0
    5.8760   44.9890   11.4950 C   0  0  0  0  0  0  0  0  0  0  0  0
    4.8910   44.3110   10.4310 C   0  0  2  0  0  0  0  0  0  0  0  0
    3.5990   44.5140   10.7560 C   0  0  0  0  0  0  0  0  0  0  0  0
    2.8250   43.1940   10.2330 O   0  0  0  0  0  0  0  0  0  0  0  0
    3.6240   42.1890   10.4200 C   0  0  0  0  0  0  0  0  0  0  0  0
    5.0690   42.8030   10.4200 C   0  0  0  0  0  0  0  0  0  0  0  0
    8.2920   48.9300   12.0760 C   0  0  0  0  0  0  0  0  0  0  0  0
    8.5970   50.2440   11.9510 N   0  0  0  0  0  0  0  0  0  0  0  0
  2  1  1  0
  3  2  1  0
  4  3  1  0
  5  4  1  0
  6  5  1  0
  7  6  1  0
  7  3  1  0
  8  7  1  0
  9  8  1  0
 10  9  1  0
 11 10  1  0
 12 11  1  1
 13 12  1  0
 14 13  1  0
 15 14  1  0
 16 15  1  0
 16 12  1  0
 17  8  1  0
 18 17  1  0
 18  2  1  0
 20 19  1  0
 21 20  1  0
 22 21  1  0
 23 22  1  0
 24 23  1  0
 25 24  1  0
 25 21  1  0
 26 25  1  0
 27 26  1  0
 28 27  1  0
 29 28  1  0
 30 29  1  1
 31 30  1  0
 32 31  1  0
 33 32  1  0
 34 33  1  0
 34 30  1  0
 35 26  1  0
 36 35  1  0
 36 20  1  0
M  END
$$$$
Mac1-UCSF-P1444_0A
     RDKit          3D

 18 20  0  0  0  0  0  0  0  0999 V2000
   35.0140   45.9890   -4.8570 C   0  0  0  0  0  0  0  0  0  0  0  0
   34.7940   46.4930   -6.1430 O   0  0  0  0  0  0  0  0  0  0  0  0
   33.4440   46.5890   -6.3820 C   0  0  2  0  0  0  0  0  0  0  0  0
   32.4730   46.6760   -5.3890 C   0  0  0  0  0  0  0  0  0  0  0  0
   31.3070   46.7120   -6.0360 C   0  0  1  0  0  0  0  0  0  0  0  0
   29.9010   46.8850   -5.4990 C   0  0  0  0  0  0  0  0  0  0  0  0
   29.4430   48.1770   -5.9790 N   0  0  0  0  0  0  0  0  0  0  0  0
   29.5190   49.3040   -5.3140 C   0  0  0  0  0  0  0  0  0  0  0  0
   29.0400   50.2880   -6.0320 N   0  0  0  0  0  0  0  0  0  0  0  0
   28.6570   49.7420   -7.1960 C   0  0  0  0  0  0  0  0  0  0  0  0
   28.0730   50.2570   -8.3820 C   0  0  0  0  0  0  0  0  0  0  0  0
   27.7730   51.6660   -8.4700 N   0  0  0  0  0  0  0  0  0  0  0  0
   27.8020   49.4360   -9.3300 N   0  0  0  0  0  0  0  0  0  0  0  0
   28.0680   48.1800   -9.2590 C   0  0  0  0  0  0  0  0  0  0  0  0
   28.6320   47.6340   -8.2050 N   0  0  0  0  0  0  0  0  0  0  0  0
   28.9340   48.4350   -7.1720 C   0  0  2  0  0  0  0  0  0  0  0  0
   31.5970   46.6740   -7.2560 O   0  0  0  0  0  0  0  0  0  0  0  0
   32.8490   46.5130   -7.5720 N   0  0  0  0  0  0  0  0  0  0  0  0
  2  1  1  0
  3  2  1  1
  4  3  1  0
  5  4  1  0
  5  6  1  6
  7  6  1  0
  8  7  1  0
  9  8  1  0
 10  9  1  0
 11 10  1  0
 12 11  1  0
 13 11  1  0
 14 13  1  0
 15 14  1  0
 16 15  1  1
 16  7  1  0
 16 10  1  0
 17  5  1  0
 18 17  1  0
 18  3  1  0
M  END
$$$$
Mac1-UCSF-P1444_1A
     RDKit          3D

 18 20  0  0  0  0  0  0  0  0999 V2000
   34.1610   43.2990   -6.3060 C   0  0  0  0  0  0  0  0  0  0  0  0
   33.6150   43.9640   -7.3960 O   0  0  0  0  0  0  0  0  0  0  0  0
   32.7620   45.0510   -7.1020 C   0  0  0  0  0  0  0  0  0  0  0  0
   31.6850   45.1030   -6.1810 C   0  0  0  0  0  0  0  0  0  0  0  0
   31.1500   46.3450   -6.2400 C   0  0  2  0  0  0  0  0  0  0  0  0
   29.9370   46.8940   -5.4790 C   0  0  0  0  0  0  0  0  0  0  0  0
   29.4610   48.1760   -5.9850 N   0  0  0  0  0  0  0  0  0  0  0  0
   29.5240   49.3050   -5.3180 C   0  0  0  0  0  0  0  0  0  0  0  0
   29.0420   50.2880   -6.0340 N   0  0  0  0  0  0  0  0  0  0  0  0
   28.6590   49.7390   -7.1970 C   0  0  0  0  0  0  0  0  0  0  0  0
   28.0710   50.2540   -8.3810 C   0  0  0  0  0  0  0  0  0  0  0  0
   27.7650   51.6630   -8.4660 N   0  0  0  0  0  0  0  0  0  0  0  0
   27.8000   49.4340   -9.3290 N   0  0  0  0  0  0  0  0  0  0  0  0
   28.0710   48.1780   -9.2600 C   0  0  0  0  0  0  0  0  0  0  0  0
   28.6390   47.6320   -8.2090 N   0  0  0  0  0  0  0  0  0  0  0  0
   28.9410   48.4320   -7.1740 C   0  0  0  0  0  0  0  0  0  0  0  0
   31.7830   46.9310   -7.1540 O   0  0  0  0  0  0  0  0  0  0  0  0
   32.7810   46.2520   -7.7000 N   0  0  0  0  0  0  0  0  0  0  0  0
  2  1  1  0
  3  2  1  0
  4  3  1  0
  5  4  1  0
  5  6  1  6
  7  6  1  0
  8  7  1  0
  9  8  1  0
 10  9  1  0
 11 10  1  0
 12 11  1  0
 13 11  1  0
 14 13  1  0
 15 14  1  0
 16 15  1  0
 16  7  1  0
 16 10  1  0
 17  5  1  0
 18 17  1  0
 18  3  1  0
M  END
$$$$
Mac1-UCSF-P1493_0A
     RDKit          3D

 13 14  0  0  0  0  0  0  0  0999 V2000
   29.3820   47.9560   -6.8970 O   0  0  0  0  0  0  0  0  0  0  0  0
   29.5450   48.6910   -5.8790 C   0  0  1  0  0  0  0  0  0  0  0  0
   30.0460   48.1650   -4.8670 O   0  0  0  0  0  0  0  0  0  0  0  0
   29.3530   50.2110   -5.9600 C   0  0  1  0  0  0  0  0  0  0  0  0
   29.8670   51.1050   -4.9950 C   0  0  0  0  0  0  0  0  0  0  0  0
   29.7740   52.4240   -5.1420 N   0  0  0  0  0  0  0  0  0  0  0  0
   29.1510   52.9540   -6.2100 C   0  0  0  0  0  0  0  0  0  0  0  0
   29.0720   54.3450   -6.3460 C   0  0  0  0  0  0  0  0  0  0  0  0
   28.4560   54.8970   -7.4580 C   0  0  0  0  0  0  0  0  0  0  0  0
   27.8940   54.0760   -8.4190 C   0  0  0  0  0  0  0  0  0  0  0  0
   27.9860   52.7000   -8.3190 C   0  0  0  0  0  0  0  0  0  0  0  0
   28.6150   52.1300   -7.1720 C   0  0  0  0  0  0  0  0  0  0  0  0
   28.7260   50.7320   -7.0600 C   0  0  0  0  0  0  0  0  0  0  0  0
  2  1  1  6
  3  2  1  0
  4  2  1  0
  4  5  1  6
  6  5  1  0
  7  6  1  0
  8  7  1  0
  9  8  1  0
 10  9  1  0
 11 10  1  0
 12 11  1  0
 12  7  1  0
 13 12  1  0
 13  4  1  0
M  CHG  1   1  -1
M  END
$$$$
Mac1-UCSF-P1494_0A
     RDKit          3D

 11 12  0  0  0  0  0  0  0  0999 V2000
   30.8610   47.6940   -4.1750 Cl  0  0  0  0  0  0  0  0  0  0  0  0
   30.1580   49.1090   -4.8020 C   0  0  2  0  0  0  0  0  0  0  0  0
   30.0450   50.1550   -3.9580 C   0  0  0  0  0  0  0  0  0  0  0  0
   29.4690   51.3330   -4.3730 C   0  0  0  0  0  0  0  0  0  0  0  0
   28.9730   51.3790   -5.6530 C   0  0  0  0  0  0  0  0  0  0  0  0
   28.3350   52.4270   -6.4290 O   0  0  0  0  0  0  0  0  0  0  0  0
   28.0690   51.9010   -7.7540 C   0  0  0  0  0  0  0  0  0  0  0  0
   27.5490   52.4270   -8.7170 O   0  0  0  0  0  0  0  0  0  0  0  0
   28.5350   50.5570   -7.7500 N   0  0  0  0  0  0  0  0  0  0  0  0
   29.0950   50.2430   -6.4840 C   0  0  0  0  0  0  0  0  0  0  0  0
   29.7090   49.0850   -6.0820 C   0  0  0  0  0  0  0  0  0  0  0  0
  2  1  1  1
  3  2  1  0
  4  3  1  0
  5  4  1  0
  6  5  1  0
  7  6  1  0
  8  7  1  0
  9  7  1  0
 10  9  1  0
 10  5  1  0
 11 10  1  0
 11  2  1  0
M  END
$$$$
Mac1-UCSF-P1494_0B
     RDKit          3D

 11 12  0  0  0  0  0  0  0  0999 V2000
   29.5490   53.8010    4.3840 Cl  0  0  0  0  0  0  0  0  0  0  0  0
   29.2230   52.5040    3.2410 C   0  0  0  0  0  0  0  0  0  0  0  0
   30.1160   52.2950    2.1740 C   0  0  0  0  0  0  0  0  0  0  0  0
   29.8790   51.2750    1.2830 C   0  0  0  0  0  0  0  0  0  0  0  0
   28.7390   50.5010    1.4780 C   0  0  0  0  0  0  0  0  0  0  0  0
   28.2150   49.4290    0.7190 O   0  0  0  0  0  0  0  0  0  0  0  0
   27.0400   48.9730    1.3300 C   0  0  0  0  0  0  0  0  0  0  0  0
   26.3880   48.0820    0.9490 O   0  0  0  0  0  0  0  0  0  0  0  0
   26.7910   49.7820    2.4700 N   0  0  0  0  0  0  0  0  0  0  0  0
   27.8650   50.7290    2.5380 C   0  0  0  0  0  0  0  0  0  0  0  0
   28.0970   51.7620    3.4410 C   0  0  0  0  0  0  0  0  0  0  0  0
  2  1  1  0
  3  2  1  0
  4  3  1  0
  5  4  1  0
  6  5  1  0
  7  6  1  0
  8  7  1  0
  9  7  1  0
 10  9  1  0
 10  5  1  0
 11 10  1  0
 11  2  1  0
M  END
$$$$
